
Note: Compatibility modes selected: hs a


Circuit: ** sch_path: /home/issa/cace/sar-adc-using-sky130-pdk/runs/run_2025-09-02_08-16-18/parameters/sndr/run_0/sndr_enob_fom.sch

option SCALE: Scale is set to 1e-06 for instance and model parameters
option SCALE: Scale is set to 1e-06 for instance and model parameters
option SCALE: Scale is set to 1e-06 for instance and model parameters
option SCALE: Scale is set to 1e-06 for instance and model parameters
Doing analysis at TEMP = 27.000000 and TNOM = 27.000000

Using KLU as Direct Linear Solver
Operating point simulation skipped by 'uic',
  now using transient initial conditions.
 Reference value :  1.00000e-12
 Reference value :  1.02386e-12
 Reference value :  1.07158e-12
 Reference value :  1.14209e-12
 Reference value :  1.22021e-12
 Reference value :  1.35919e-12
 Reference value :  1.57496e-12
 Reference value :  1.90695e-12
 Reference value :  2.54069e-12
 Reference value :  3.47508e-12
 Reference value :  4.89862e-12
 Reference value :  6.43076e-12
 Reference value :  8.78402e-12
 Reference value :  1.27703e-11
 Reference value :  1.81208e-11
 Reference value :  2.51066e-11
 Reference value :  3.39346e-11
 Reference value :  4.39904e-11
 Reference value :  5.94281e-11
 Reference value :  7.90896e-11
 Reference value :  1.00000e-10
 Reference value :  1.00407e-10
 Reference value :  1.01220e-10
 Reference value :  1.02846e-10
 Reference value :  1.06085e-10
 Reference value :  1.12564e-10
 Reference value :  1.25520e-10
 Reference value :  1.51434e-10
 Reference value :  1.88880e-10
 Reference value :  2.35680e-10
 Reference value :  3.03148e-10
 Reference value :  4.21506e-10
 Reference value :  6.53780e-10
 Reference value :  9.32313e-10
 Reference value :  1.37134e-09
 Reference value :  1.84679e-09
 Reference value :  2.62091e-09
 Reference value :  3.47345e-09
 Reference value :  4.20575e-09
 Reference value :  5.03969e-09
 Reference value :  5.82191e-09
 Reference value :  6.68159e-09
 Reference value :  7.56982e-09
 Reference value :  8.51550e-09
 Reference value :  9.43646e-09
 Reference value :  1.01718e-08
 Reference value :  1.09666e-08
 Reference value :  1.18929e-08
 Reference value :  1.28918e-08
 Reference value :  1.42007e-08
 Reference value :  1.54988e-08
 Reference value :  1.69589e-08
 Reference value :  1.83414e-08
 Reference value :  1.97475e-08
 Reference value :  2.10962e-08
 Reference value :  2.30945e-08
 Reference value :  2.45602e-08
 Reference value :  2.61812e-08
 Reference value :  2.82700e-08
 Reference value :  3.07016e-08
 Reference value :  3.35517e-08
 Reference value :  3.62786e-08
 Reference value :  4.17324e-08
 Reference value :  4.84393e-08
 Reference value :  6.18530e-08
 Reference value :  8.86805e-08
 Reference value :  1.24098e-07
 Reference value :  1.83129e-07
 Reference value :  2.50100e-07
 Reference value :  2.50110e-07
 Reference value :  2.50130e-07
 Reference value :  2.50170e-07
 Reference value :  2.50200e-07
 Reference value :  2.50201e-07
 Reference value :  2.50202e-07
 Reference value :  2.50204e-07
 Reference value :  2.50208e-07
 Reference value :  2.50216e-07
 Reference value :  2.50232e-07
 Reference value :  2.50265e-07
 Reference value :  2.50331e-07
 Reference value :  2.50412e-07
 Reference value :  2.50575e-07
 Reference value :  2.50741e-07
 Reference value :  2.51073e-07
 Reference value :  2.51459e-07
 Reference value :  2.52119e-07
 Reference value :  2.52784e-07
 Reference value :  2.53506e-07
 Reference value :  2.54463e-07
 Reference value :  2.55477e-07
 Reference value :  2.56511e-07
 Reference value :  2.57705e-07
 Reference value :  2.58900e-07
 Reference value :  2.60081e-07
 Reference value :  2.61405e-07
 Reference value :  2.63104e-07
 Reference value :  2.65830e-07
 Reference value :  2.69919e-07
 Reference value :  2.77676e-07
 Reference value :  2.90946e-07
 Reference value :  3.15643e-07
 Reference value :  3.60225e-07
 Reference value :  4.40956e-07
 Reference value :  5.00000e-07
 Reference value :  5.00010e-07
 Reference value :  5.00030e-07
 Reference value :  5.00070e-07
 Reference value :  5.00100e-07
 Reference value :  5.00101e-07
 Reference value :  5.00102e-07
 Reference value :  5.00104e-07
 Reference value :  5.00108e-07
 Reference value :  5.00116e-07
 Reference value :  5.00133e-07
 Reference value :  5.00166e-07
 Reference value :  5.00232e-07
 Reference value :  5.00364e-07
 Reference value :  5.00562e-07
 Reference value :  5.00958e-07
 Reference value :  5.01468e-07
 Reference value :  5.02004e-07
 Reference value :  5.02765e-07
 Reference value :  5.03571e-07
 Reference value :  5.04319e-07
 Reference value :  5.05131e-07
 Reference value :  5.06130e-07
 Reference value :  5.07181e-07
 Reference value :  5.08420e-07
 Reference value :  5.09735e-07
 Reference value :  5.11696e-07
 Reference value :  5.13521e-07
 Reference value :  5.15544e-07
 Reference value :  5.17484e-07
 Reference value :  5.19713e-07
 Reference value :  5.24171e-07
 Reference value :  5.27127e-07
 Reference value :  5.30599e-07
 Reference value :  5.34415e-07
 Reference value :  5.38455e-07
 Reference value :  5.44683e-07
 Reference value :  5.50634e-07
 Reference value :  5.60342e-07
 Reference value :  5.74367e-07
 Reference value :  6.02419e-07
 Reference value :  6.58521e-07
 Reference value :  7.50100e-07
 Reference value :  7.50110e-07
 Reference value :  7.50130e-07
 Reference value :  7.50170e-07
 Reference value :  7.50200e-07
 Reference value :  7.50201e-07
 Reference value :  7.50202e-07
 Reference value :  7.50204e-07
 Reference value :  7.50208e-07
 Reference value :  7.50216e-07
 Reference value :  7.50233e-07
 Reference value :  7.50266e-07
 Reference value :  7.50333e-07
 Reference value :  7.50467e-07
 Reference value :  7.50644e-07
 Reference value :  7.50914e-07
 Reference value :  7.51453e-07
 Reference value :  7.52099e-07
 Reference value :  7.52800e-07
 Reference value :  7.53530e-07
 Reference value :  7.54427e-07
 Reference value :  7.55525e-07
 Reference value :  7.56676e-07
 Reference value :  7.57701e-07
 Reference value :  7.58795e-07
 Reference value :  7.59790e-07
 Reference value :  7.60838e-07
 Reference value :  7.62265e-07
 Reference value :  7.63777e-07
 Reference value :  7.66801e-07
 Reference value :  7.71905e-07
 Reference value :  7.79805e-07
 Reference value :  7.95122e-07
 Reference value :  8.19590e-07
 Reference value :  8.63779e-07
 Reference value :  9.43787e-07
 Reference value :  1.00000e-06
 Reference value :  1.00001e-06
 Reference value :  1.00003e-06
 Reference value :  1.00007e-06
 Reference value :  1.00010e-06
 Reference value :  1.00010e-06
 Reference value :  1.00010e-06
 Reference value :  1.00010e-06
 Reference value :  1.00011e-06
 Reference value :  1.00012e-06
 Reference value :  1.00013e-06
 Reference value :  1.00017e-06
 Reference value :  1.00023e-06
 Reference value :  1.00036e-06
 Reference value :  1.00056e-06
 Reference value :  1.00096e-06
 Reference value :  1.00147e-06
 Reference value :  1.00201e-06
 Reference value :  1.00276e-06
 Reference value :  1.00346e-06
 Reference value :  1.00420e-06
 Reference value :  1.00499e-06
 Reference value :  1.00587e-06
 Reference value :  1.00691e-06
 Reference value :  1.00774e-06
 Reference value :  1.00867e-06
 Reference value :  1.00966e-06
 Reference value :  1.01084e-06
 Reference value :  1.01249e-06
 Reference value :  1.01493e-06
 Reference value :  1.01837e-06
 Reference value :  1.02257e-06
 Reference value :  1.02578e-06
 Reference value :  1.02864e-06
 Reference value :  1.03084e-06
 Reference value :  1.03288e-06
 Reference value :  1.03524e-06
 Reference value :  1.03751e-06
 Reference value :  1.04006e-06
 Reference value :  1.04371e-06
 Reference value :  1.04820e-06
 Reference value :  1.05481e-06
 Reference value :  1.06470e-06
 Reference value :  1.07947e-06
 Reference value :  1.10281e-06
 Reference value :  1.13823e-06
 Reference value :  1.19432e-06
 Reference value :  1.25010e-06
 Reference value :  1.25011e-06
 Reference value :  1.25013e-06
 Reference value :  1.25017e-06
 Reference value :  1.25020e-06
 Reference value :  1.25020e-06
 Reference value :  1.25020e-06
 Reference value :  1.25020e-06
 Reference value :  1.25021e-06
 Reference value :  1.25022e-06
 Reference value :  1.25023e-06
 Reference value :  1.25027e-06
 Reference value :  1.25033e-06
 Reference value :  1.25047e-06
 Reference value :  1.25064e-06
 Reference value :  1.25091e-06
 Reference value :  1.25145e-06
 Reference value :  1.25210e-06
 Reference value :  1.25288e-06
 Reference value :  1.25358e-06
 Reference value :  1.25455e-06
 Reference value :  1.25561e-06
 Reference value :  1.25656e-06
 Reference value :  1.25766e-06
 Reference value :  1.25883e-06
 Reference value :  1.26002e-06
 Reference value :  1.26154e-06
 Reference value :  1.26423e-06
 Reference value :  1.26761e-06
 Reference value :  1.27325e-06
 Reference value :  1.28453e-06
 Reference value :  1.30108e-06
 Reference value :  1.33417e-06
 Reference value :  1.40034e-06
 Reference value :  1.50000e-06
 Reference value :  1.50001e-06
 Reference value :  1.50003e-06
 Reference value :  1.50007e-06
 Reference value :  1.50010e-06
 Reference value :  1.50010e-06
 Reference value :  1.50010e-06
 Reference value :  1.50010e-06
 Reference value :  1.50011e-06
 Reference value :  1.50012e-06
 Reference value :  1.50013e-06
 Reference value :  1.50017e-06
 Reference value :  1.50023e-06
 Reference value :  1.50036e-06
 Reference value :  1.50056e-06
 Reference value :  1.50095e-06
 Reference value :  1.50146e-06
 Reference value :  1.50200e-06
 Reference value :  1.50275e-06
 Reference value :  1.50344e-06
 Reference value :  1.50417e-06
 Reference value :  1.50500e-06
 Reference value :  1.50592e-06
 Reference value :  1.50700e-06
 Reference value :  1.50798e-06
 Reference value :  1.50966e-06
 Reference value :  1.51119e-06
 Reference value :  1.51312e-06
 Reference value :  1.51472e-06
 Reference value :  1.51641e-06
 Reference value :  1.51868e-06
 Reference value :  1.52100e-06
 Reference value :  1.52487e-06
 Reference value :  1.53000e-06
 Reference value :  1.53801e-06
 Reference value :  1.55075e-06
 Reference value :  1.57339e-06
 Reference value :  1.61494e-06
 Reference value :  1.69169e-06
 Reference value :  1.75010e-06
 Reference value :  1.75011e-06
 Reference value :  1.75013e-06
 Reference value :  1.75017e-06
 Reference value :  1.75020e-06
 Reference value :  1.75020e-06
 Reference value :  1.75020e-06
 Reference value :  1.75020e-06
 Reference value :  1.75021e-06
 Reference value :  1.75022e-06
 Reference value :  1.75023e-06
 Reference value :  1.75027e-06
 Reference value :  1.75033e-06
 Reference value :  1.75047e-06
 Reference value :  1.75064e-06
 Reference value :  1.75091e-06
 Reference value :  1.75145e-06
 Reference value :  1.75210e-06
 Reference value :  1.75288e-06
 Reference value :  1.75358e-06
 Reference value :  1.75454e-06
 Reference value :  1.75561e-06
 Reference value :  1.75653e-06
 Reference value :  1.75762e-06
 Reference value :  1.75852e-06
 Reference value :  1.75951e-06
 Reference value :  1.76068e-06
 Reference value :  1.76199e-06
 Reference value :  1.76463e-06
 Reference value :  1.76850e-06
 Reference value :  1.77518e-06
 Reference value :  1.78831e-06
 Reference value :  1.80989e-06
 Reference value :  1.85306e-06
 Reference value :  1.93939e-06
 Reference value :  2.00000e-06
 Reference value :  2.00001e-06
 Reference value :  2.00003e-06
 Reference value :  2.00007e-06
 Reference value :  2.00010e-06
 Reference value :  2.00010e-06
 Reference value :  2.00010e-06
 Reference value :  2.00010e-06
 Reference value :  2.00011e-06
 Reference value :  2.00012e-06
 Reference value :  2.00013e-06
 Reference value :  2.00017e-06
 Reference value :  2.00023e-06
 Reference value :  2.00036e-06
 Reference value :  2.00056e-06
 Reference value :  2.00095e-06
 Reference value :  2.00146e-06
 Reference value :  2.00200e-06
 Reference value :  2.00275e-06
 Reference value :  2.00345e-06
 Reference value :  2.00418e-06
 Reference value :  2.00498e-06
 Reference value :  2.00586e-06
 Reference value :  2.00661e-06
 Reference value :  2.00746e-06
 Reference value :  2.00819e-06
 Reference value :  2.00904e-06
 Reference value :  2.01012e-06
 Reference value :  2.01126e-06
 Reference value :  2.01328e-06
 Reference value :  2.01572e-06
 Reference value :  2.01879e-06
 Reference value :  2.02225e-06
 Reference value :  2.02507e-06
 Reference value :  2.02734e-06
 Reference value :  2.02948e-06
 Reference value :  2.03161e-06
 Reference value :  2.03379e-06
 Reference value :  2.03635e-06
 Reference value :  2.03957e-06
 Reference value :  2.04502e-06
 Reference value :  2.05228e-06
 Reference value :  2.06483e-06
 Reference value :  2.08379e-06
 Reference value :  2.11446e-06
 Reference value :  2.16380e-06
 Reference value :  2.24513e-06
 Reference value :  2.25010e-06
 Reference value :  2.25011e-06
 Reference value :  2.25013e-06
 Reference value :  2.25017e-06
 Reference value :  2.25020e-06
 Reference value :  2.25020e-06
 Reference value :  2.25020e-06
 Reference value :  2.25020e-06
 Reference value :  2.25021e-06
 Reference value :  2.25022e-06
 Reference value :  2.25023e-06
 Reference value :  2.25027e-06
 Reference value :  2.25033e-06
 Reference value :  2.25047e-06
 Reference value :  2.25064e-06
 Reference value :  2.25091e-06
 Reference value :  2.25145e-06
 Reference value :  2.25210e-06
 Reference value :  2.25288e-06
 Reference value :  2.25358e-06
 Reference value :  2.25454e-06
 Reference value :  2.25561e-06
 Reference value :  2.25659e-06
 Reference value :  2.25771e-06
 Reference value :  2.25880e-06
 Reference value :  2.26041e-06
 Reference value :  2.26247e-06
 Reference value :  2.26506e-06
 Reference value :  2.26894e-06
 Reference value :  2.27571e-06
 Reference value :  2.28668e-06
 Reference value :  2.30516e-06
 Reference value :  2.34212e-06
 Reference value :  2.41474e-06
 Reference value :  2.50000e-06
 Reference value :  2.50001e-06
 Reference value :  2.50003e-06
 Reference value :  2.50007e-06
 Reference value :  2.50010e-06
 Reference value :  2.50010e-06
 Reference value :  2.50010e-06
 Reference value :  2.50010e-06
 Reference value :  2.50011e-06
 Reference value :  2.50012e-06
 Reference value :  2.50013e-06
 Reference value :  2.50017e-06
 Reference value :  2.50023e-06
 Reference value :  2.50036e-06
 Reference value :  2.50055e-06
 Reference value :  2.50091e-06
 Reference value :  2.50141e-06
 Reference value :  2.50194e-06
 Reference value :  2.50269e-06
 Reference value :  2.50338e-06
 Reference value :  2.50409e-06
 Reference value :  2.50487e-06
 Reference value :  2.50575e-06
 Reference value :  2.50670e-06
 Reference value :  2.50792e-06
 Reference value :  2.50945e-06
 Reference value :  2.51166e-06
 Reference value :  2.51318e-06
 Reference value :  2.51483e-06
 Reference value :  2.51649e-06
 Reference value :  2.51879e-06
 Reference value :  2.52130e-06
 Reference value :  2.52555e-06
 Reference value :  2.53158e-06
 Reference value :  2.54130e-06
 Reference value :  2.56030e-06
 Reference value :  2.59009e-06
 Reference value :  2.64520e-06
 Reference value :  2.73970e-06
 Reference value :  2.75010e-06
 Reference value :  2.75011e-06
 Reference value :  2.75013e-06
 Reference value :  2.75017e-06
 Reference value :  2.75020e-06
 Reference value :  2.75020e-06
 Reference value :  2.75020e-06
 Reference value :  2.75020e-06
 Reference value :  2.75021e-06
 Reference value :  2.75022e-06
 Reference value :  2.75023e-06
 Reference value :  2.75027e-06
 Reference value :  2.75033e-06
 Reference value :  2.75047e-06
 Reference value :  2.75064e-06
 Reference value :  2.75091e-06
 Reference value :  2.75145e-06
 Reference value :  2.75210e-06
 Reference value :  2.75287e-06
 Reference value :  2.75358e-06
 Reference value :  2.75455e-06
 Reference value :  2.75549e-06
 Reference value :  2.75652e-06
 Reference value :  2.75754e-06
 Reference value :  2.75847e-06
 Reference value :  2.75954e-06
 Reference value :  2.76077e-06
 Reference value :  2.76322e-06
 Reference value :  2.76637e-06
 Reference value :  2.77092e-06
 Reference value :  2.77913e-06
 Reference value :  2.79350e-06
 Reference value :  2.81738e-06
 Reference value :  2.86513e-06
 Reference value :  2.96063e-06
 Reference value :  3.00000e-06
 Reference value :  3.00001e-06
 Reference value :  3.00003e-06
 Reference value :  3.00007e-06
 Reference value :  3.00010e-06
 Reference value :  3.00010e-06
 Reference value :  3.00010e-06
 Reference value :  3.00010e-06
 Reference value :  3.00011e-06
 Reference value :  3.00012e-06
 Reference value :  3.00013e-06
 Reference value :  3.00017e-06
 Reference value :  3.00023e-06
 Reference value :  3.00036e-06
 Reference value :  3.00055e-06
 Reference value :  3.00091e-06
 Reference value :  3.00141e-06
 Reference value :  3.00194e-06
 Reference value :  3.00269e-06
 Reference value :  3.00338e-06
 Reference value :  3.00409e-06
 Reference value :  3.00487e-06
 Reference value :  3.00574e-06
 Reference value :  3.00666e-06
 Reference value :  3.00763e-06
 Reference value :  3.00843e-06
 Reference value :  3.00935e-06
 Reference value :  3.01050e-06
 Reference value :  3.01173e-06
 Reference value :  3.01404e-06
 Reference value :  3.01621e-06
 Reference value :  3.01902e-06
 Reference value :  3.02131e-06
 Reference value :  3.02338e-06
 Reference value :  3.02483e-06
 Reference value :  3.02637e-06
 Reference value :  3.02796e-06
 Reference value :  3.02958e-06
 Reference value :  3.03144e-06
 Reference value :  3.03467e-06
 Reference value :  3.03765e-06
 Reference value :  3.04359e-06
 Reference value :  3.05269e-06
 Reference value :  3.06681e-06
 Reference value :  3.09374e-06
 Reference value :  3.14112e-06
 Reference value :  3.19693e-06
 Reference value :  3.22721e-06
 Reference value :  3.25010e-06
 Reference value :  3.25011e-06
 Reference value :  3.25013e-06
 Reference value :  3.25017e-06
 Reference value :  3.25020e-06
 Reference value :  3.25020e-06
 Reference value :  3.25020e-06
 Reference value :  3.25020e-06
 Reference value :  3.25021e-06
 Reference value :  3.25022e-06
 Reference value :  3.25023e-06
 Reference value :  3.25027e-06
 Reference value :  3.25033e-06
 Reference value :  3.25047e-06
 Reference value :  3.25064e-06
 Reference value :  3.25091e-06
 Reference value :  3.25145e-06
 Reference value :  3.25210e-06
 Reference value :  3.25287e-06
 Reference value :  3.25358e-06
 Reference value :  3.25455e-06
 Reference value :  3.25561e-06
 Reference value :  3.25650e-06
 Reference value :  3.25747e-06
 Reference value :  3.25845e-06
 Reference value :  3.25980e-06
 Reference value :  3.26122e-06
 Reference value :  3.26386e-06
 Reference value :  3.26712e-06
 Reference value :  3.27230e-06
 Reference value :  3.28266e-06
 Reference value :  3.29861e-06
 Reference value :  3.33027e-06
 Reference value :  3.39361e-06
 Reference value :  3.50000e-06
 Reference value :  3.50001e-06
 Reference value :  3.50003e-06
 Reference value :  3.50007e-06
 Reference value :  3.50010e-06
 Reference value :  3.50010e-06
 Reference value :  3.50010e-06
 Reference value :  3.50010e-06
 Reference value :  3.50011e-06
 Reference value :  3.50012e-06
 Reference value :  3.50013e-06
 Reference value :  3.50017e-06
 Reference value :  3.50023e-06
 Reference value :  3.50036e-06
 Reference value :  3.50055e-06
 Reference value :  3.50091e-06
 Reference value :  3.50141e-06
 Reference value :  3.50194e-06
 Reference value :  3.50269e-06
 Reference value :  3.50337e-06
 Reference value :  3.50409e-06
 Reference value :  3.50490e-06
 Reference value :  3.50579e-06
 Reference value :  3.50679e-06
 Reference value :  3.50791e-06
 Reference value :  3.50964e-06
 Reference value :  3.51111e-06
 Reference value :  3.51277e-06
 Reference value :  3.51448e-06
 Reference value :  3.51628e-06
 Reference value :  3.51806e-06
 Reference value :  3.52063e-06
 Reference value :  3.52347e-06
 Reference value :  3.52842e-06
 Reference value :  3.53588e-06
 Reference value :  3.54844e-06
 Reference value :  3.57091e-06
 Reference value :  3.60912e-06
 Reference value :  3.67883e-06
 Reference value :  3.75010e-06
 Reference value :  3.75011e-06
 Reference value :  3.75013e-06
 Reference value :  3.75017e-06
 Reference value :  3.75020e-06
 Reference value :  3.75020e-06
 Reference value :  3.75020e-06
 Reference value :  3.75020e-06
 Reference value :  3.75021e-06
 Reference value :  3.75022e-06
 Reference value :  3.75023e-06
 Reference value :  3.75027e-06
 Reference value :  3.75033e-06
 Reference value :  3.75047e-06
 Reference value :  3.75064e-06
 Reference value :  3.75091e-06
 Reference value :  3.75145e-06
 Reference value :  3.75210e-06
 Reference value :  3.75288e-06
 Reference value :  3.75358e-06
 Reference value :  3.75454e-06
 Reference value :  3.75561e-06
 Reference value :  3.75651e-06
 Reference value :  3.75749e-06
 Reference value :  3.75842e-06
 Reference value :  3.75944e-06
 Reference value :  3.76062e-06
 Reference value :  3.76298e-06
 Reference value :  3.76610e-06
 Reference value :  3.77060e-06
 Reference value :  3.77848e-06
 Reference value :  3.79425e-06
 Reference value :  3.82426e-06
 Reference value :  3.88429e-06
 Reference value :  4.00000e-06
 Reference value :  4.00001e-06
 Reference value :  4.00003e-06
 Reference value :  4.00007e-06
 Reference value :  4.00010e-06
 Reference value :  4.00010e-06
 Reference value :  4.00010e-06
 Reference value :  4.00010e-06
 Reference value :  4.00011e-06
 Reference value :  4.00012e-06
 Reference value :  4.00013e-06
 Reference value :  4.00017e-06
 Reference value :  4.00023e-06
 Reference value :  4.00036e-06
 Reference value :  4.00055e-06
 Reference value :  4.00091e-06
 Reference value :  4.00141e-06
 Reference value :  4.00194e-06
 Reference value :  4.00269e-06
 Reference value :  4.00337e-06
 Reference value :  4.00409e-06
 Reference value :  4.00488e-06
 Reference value :  4.00575e-06
 Reference value :  4.00657e-06
 Reference value :  4.00743e-06
 Reference value :  4.00840e-06
 Reference value :  4.00935e-06
 Reference value :  4.01035e-06
 Reference value :  4.01180e-06
 Reference value :  4.01329e-06
 Reference value :  4.01576e-06
 Reference value :  4.01845e-06
 Reference value :  4.02086e-06
 Reference value :  4.02345e-06
 Reference value :  4.02537e-06
 Reference value :  4.02720e-06
 Reference value :  4.02884e-06
 Reference value :  4.03061e-06
 Reference value :  4.03272e-06
 Reference value :  4.03533e-06
 Reference value :  4.03850e-06
 Reference value :  4.04363e-06
 Reference value :  4.05080e-06
 Reference value :  4.06045e-06
 Reference value :  4.07058e-06
 Reference value :  4.08082e-06
 Reference value :  4.09012e-06
 Reference value :  4.09830e-06
 Reference value :  4.10633e-06
 Reference value :  4.11306e-06
 Reference value :  4.12157e-06
 Reference value :  4.13327e-06
 Reference value :  4.14778e-06
 Reference value :  4.15975e-06
 Reference value :  4.17094e-06
 Reference value :  4.17933e-06
 Reference value :  4.18689e-06
 Reference value :  4.19484e-06
 Reference value :  4.20368e-06
 Reference value :  4.21540e-06
 Reference value :  4.22948e-06
 Reference value :  4.24916e-06
 Reference value :  4.25010e-06
 Reference value :  4.25011e-06
 Reference value :  4.25013e-06
 Reference value :  4.25017e-06
 Reference value :  4.25020e-06
 Reference value :  4.25020e-06
 Reference value :  4.25020e-06
 Reference value :  4.25020e-06
 Reference value :  4.25021e-06
 Reference value :  4.25022e-06
 Reference value :  4.25023e-06
 Reference value :  4.25027e-06
 Reference value :  4.25033e-06
 Reference value :  4.25042e-06
 Reference value :  4.25058e-06
 Reference value :  4.25077e-06
 Reference value :  4.25109e-06
 Reference value :  4.25172e-06
 Reference value :  4.25234e-06
 Reference value :  4.25304e-06
 Reference value :  4.25378e-06
 Reference value :  4.25472e-06
 Reference value :  4.25557e-06
 Reference value :  4.25652e-06
 Reference value :  4.25747e-06
 Reference value :  4.25845e-06
 Reference value :  4.26008e-06
 Reference value :  4.26171e-06
 Reference value :  4.26438e-06
 Reference value :  4.26788e-06
 Reference value :  4.27368e-06
 Reference value :  4.28527e-06
 Reference value :  4.30846e-06
 Reference value :  4.35483e-06
 Reference value :  4.44758e-06
 Reference value :  4.50000e-06
 Reference value :  4.50001e-06
 Reference value :  4.50003e-06
 Reference value :  4.50007e-06
 Reference value :  4.50010e-06
 Reference value :  4.50010e-06
 Reference value :  4.50010e-06
 Reference value :  4.50010e-06
 Reference value :  4.50011e-06
 Reference value :  4.50012e-06
 Reference value :  4.50013e-06
 Reference value :  4.50017e-06
 Reference value :  4.50023e-06
 Reference value :  4.50036e-06
 Reference value :  4.50063e-06
 Reference value :  4.50110e-06
 Reference value :  4.50176e-06
 Reference value :  4.50247e-06
 Reference value :  4.50308e-06
 Reference value :  4.50385e-06
 Reference value :  4.50467e-06
 Reference value :  4.50554e-06
 Reference value :  4.50641e-06
 Reference value :  4.50745e-06
 Reference value :  4.50872e-06
 Reference value :  4.51033e-06
 Reference value :  4.51153e-06
 Reference value :  4.51294e-06
 Reference value :  4.51457e-06
 Reference value :  4.51624e-06
 Reference value :  4.51803e-06
 Reference value :  4.52161e-06
 Reference value :  4.52878e-06
 Reference value :  4.54185e-06
 Reference value :  4.56801e-06
 Reference value :  4.62031e-06
 Reference value :  4.72493e-06
 Reference value :  4.75010e-06
 Reference value :  4.75011e-06
 Reference value :  4.75013e-06
 Reference value :  4.75017e-06
 Reference value :  4.75020e-06
 Reference value :  4.75020e-06
 Reference value :  4.75020e-06
 Reference value :  4.75020e-06
 Reference value :  4.75021e-06
 Reference value :  4.75022e-06
 Reference value :  4.75023e-06
 Reference value :  4.75027e-06
 Reference value :  4.75033e-06
 Reference value :  4.75042e-06
 Reference value :  4.75058e-06
 Reference value :  4.75077e-06
 Reference value :  4.75108e-06
 Reference value :  4.75171e-06
 Reference value :  4.75233e-06
 Reference value :  4.75303e-06
 Reference value :  4.75377e-06
 Reference value :  4.75471e-06
 Reference value :  4.75554e-06
 Reference value :  4.75647e-06
 Reference value :  4.75729e-06
 Reference value :  4.75819e-06
 Reference value :  4.75919e-06
 Reference value :  4.76033e-06
 Reference value :  4.76262e-06
 Reference value :  4.76557e-06
 Reference value :  4.76978e-06
 Reference value :  4.77686e-06
 Reference value :  4.79104e-06
 Reference value :  4.81939e-06
 Reference value :  4.87608e-06
 Reference value :  4.98947e-06
 Reference value :  5.00000e-06
 Reference value :  5.00001e-06
 Reference value :  5.00003e-06
 Reference value :  5.00007e-06
 Reference value :  5.00010e-06
 Reference value :  5.00010e-06
 Reference value :  5.00010e-06
 Reference value :  5.00010e-06
 Reference value :  5.00011e-06
 Reference value :  5.00012e-06
 Reference value :  5.00013e-06
 Reference value :  5.00017e-06
 Reference value :  5.00023e-06
 Reference value :  5.00036e-06
 Reference value :  5.00063e-06
 Reference value :  5.00109e-06
 Reference value :  5.00175e-06
 Reference value :  5.00247e-06
 Reference value :  5.00309e-06
 Reference value :  5.00385e-06
 Reference value :  5.00472e-06
 Reference value :  5.00561e-06
 Reference value :  5.00649e-06
 Reference value :  5.00729e-06
 Reference value :  5.00805e-06
 Reference value :  5.00889e-06
 Reference value :  5.01000e-06
 Reference value :  5.01117e-06
 Reference value :  5.01352e-06
 Reference value :  5.01591e-06
 Reference value :  5.01931e-06
 Reference value :  5.02283e-06
 Reference value :  5.02596e-06
 Reference value :  5.02838e-06
 Reference value :  5.03065e-06
 Reference value :  5.03316e-06
 Reference value :  5.03559e-06
 Reference value :  5.03846e-06
 Reference value :  5.04176e-06
 Reference value :  5.04717e-06
 Reference value :  5.05353e-06
 Reference value :  5.06050e-06
 Reference value :  5.06548e-06
 Reference value :  5.07069e-06
 Reference value :  5.07597e-06
 Reference value :  5.08194e-06
 Reference value :  5.09022e-06
 Reference value :  5.09680e-06
 Reference value :  5.10463e-06
 Reference value :  5.11589e-06
 Reference value :  5.13288e-06
 Reference value :  5.15624e-06
 Reference value :  5.19237e-06
 Reference value :  5.24980e-06
 Reference value :  5.25010e-06
 Reference value :  5.25010e-06
 Reference value :  5.25011e-06
 Reference value :  5.25013e-06
 Reference value :  5.25016e-06
 Reference value :  5.25020e-06
 Reference value :  5.25020e-06
 Reference value :  5.25020e-06
 Reference value :  5.25020e-06
 Reference value :  5.25021e-06
 Reference value :  5.25022e-06
 Reference value :  5.25024e-06
 Reference value :  5.25028e-06
 Reference value :  5.25035e-06
 Reference value :  5.25045e-06
 Reference value :  5.25064e-06
 Reference value :  5.25083e-06
 Reference value :  5.25121e-06
 Reference value :  5.25187e-06
 Reference value :  5.25251e-06
 Reference value :  5.25320e-06
 Reference value :  5.25404e-06
 Reference value :  5.25508e-06
 Reference value :  5.25620e-06
 Reference value :  5.25739e-06
 Reference value :  5.25849e-06
 Reference value :  5.25980e-06
 Reference value :  5.26143e-06
 Reference value :  5.26418e-06
 Reference value :  5.26755e-06
 Reference value :  5.27304e-06
 Reference value :  5.28403e-06
 Reference value :  5.30238e-06
 Reference value :  5.32415e-06
 Reference value :  5.34925e-06
 Reference value :  5.36725e-06
 Reference value :  5.38711e-06
 Reference value :  5.40628e-06
 Reference value :  5.42933e-06
 Reference value :  5.45424e-06
 Reference value :  5.50000e-06
 Reference value :  5.50001e-06
 Reference value :  5.50003e-06
 Reference value :  5.50007e-06
 Reference value :  5.50010e-06
 Reference value :  5.50010e-06
 Reference value :  5.50010e-06
 Reference value :  5.50010e-06
 Reference value :  5.50011e-06
 Reference value :  5.50012e-06
 Reference value :  5.50013e-06
 Reference value :  5.50017e-06
 Reference value :  5.50023e-06
 Reference value :  5.50036e-06
 Reference value :  5.50063e-06
 Reference value :  5.50110e-06
 Reference value :  5.50176e-06
 Reference value :  5.50247e-06
 Reference value :  5.50308e-06
 Reference value :  5.50385e-06
 Reference value :  5.50481e-06
 Reference value :  5.50576e-06
 Reference value :  5.50670e-06
 Reference value :  5.50783e-06
 Reference value :  5.50918e-06
 Reference value :  5.51079e-06
 Reference value :  5.51225e-06
 Reference value :  5.51359e-06
 Reference value :  5.51508e-06
 Reference value :  5.51673e-06
 Reference value :  5.51845e-06
 Reference value :  5.52187e-06
 Reference value :  5.52676e-06
 Reference value :  5.53650e-06
 Reference value :  5.55454e-06
 Reference value :  5.58725e-06
 Reference value :  5.65232e-06
 Reference value :  5.75010e-06
 Reference value :  5.75011e-06
 Reference value :  5.75013e-06
 Reference value :  5.75017e-06
 Reference value :  5.75020e-06
 Reference value :  5.75020e-06
 Reference value :  5.75020e-06
 Reference value :  5.75020e-06
 Reference value :  5.75021e-06
 Reference value :  5.75022e-06
 Reference value :  5.75023e-06
 Reference value :  5.75027e-06
 Reference value :  5.75033e-06
 Reference value :  5.75041e-06
 Reference value :  5.75058e-06
 Reference value :  5.75077e-06
 Reference value :  5.75108e-06
 Reference value :  5.75170e-06
 Reference value :  5.75233e-06
 Reference value :  5.75303e-06
 Reference value :  5.75376e-06
 Reference value :  5.75470e-06
 Reference value :  5.75573e-06
 Reference value :  5.75648e-06
 Reference value :  5.75737e-06
 Reference value :  5.75836e-06
 Reference value :  5.75929e-06
 Reference value :  5.76068e-06
 Reference value :  5.76212e-06
 Reference value :  5.76499e-06
 Reference value :  5.76877e-06
 Reference value :  5.77633e-06
 Reference value :  5.79145e-06
 Reference value :  5.81857e-06
 Reference value :  5.87281e-06
 Reference value :  5.98129e-06
 Reference value :  6.00000e-06
 Reference value :  6.00001e-06
 Reference value :  6.00003e-06
 Reference value :  6.00007e-06
 Reference value :  6.00010e-06
 Reference value :  6.00010e-06
 Reference value :  6.00010e-06
 Reference value :  6.00010e-06
 Reference value :  6.00011e-06
 Reference value :  6.00012e-06
 Reference value :  6.00013e-06
 Reference value :  6.00017e-06
 Reference value :  6.00023e-06
 Reference value :  6.00036e-06
 Reference value :  6.00063e-06
 Reference value :  6.00109e-06
 Reference value :  6.00175e-06
 Reference value :  6.00247e-06
 Reference value :  6.00309e-06
 Reference value :  6.00385e-06
 Reference value :  6.00482e-06
 Reference value :  6.00571e-06
 Reference value :  6.00666e-06
 Reference value :  6.00758e-06
 Reference value :  6.00856e-06
 Reference value :  6.00957e-06
 Reference value :  6.01080e-06
 Reference value :  6.01257e-06
 Reference value :  6.01488e-06
 Reference value :  6.01891e-06
 Reference value :  6.02380e-06
 Reference value :  6.02718e-06
 Reference value :  6.03005e-06
 Reference value :  6.03277e-06
 Reference value :  6.03554e-06
 Reference value :  6.03844e-06
 Reference value :  6.04162e-06
 Reference value :  6.04509e-06
 Reference value :  6.04891e-06
 Reference value :  6.05249e-06
 Reference value :  6.05658e-06
 Reference value :  6.05960e-06
 Reference value :  6.06300e-06
 Reference value :  6.06631e-06
 Reference value :  6.07013e-06
 Reference value :  6.07613e-06
 Reference value :  6.08342e-06
 Reference value :  6.09030e-06
 Reference value :  6.09839e-06
 Reference value :  6.10657e-06
 Reference value :  6.12222e-06
 Reference value :  6.14420e-06
 Reference value :  6.18603e-06
 Reference value :  6.24626e-06
 Reference value :  6.25010e-06
 Reference value :  6.25011e-06
 Reference value :  6.25013e-06
 Reference value :  6.25017e-06
 Reference value :  6.25020e-06
 Reference value :  6.25020e-06
 Reference value :  6.25020e-06
 Reference value :  6.25020e-06
 Reference value :  6.25021e-06
 Reference value :  6.25022e-06
 Reference value :  6.25023e-06
 Reference value :  6.25027e-06
 Reference value :  6.25033e-06
 Reference value :  6.25041e-06
 Reference value :  6.25058e-06
 Reference value :  6.25076e-06
 Reference value :  6.25106e-06
 Reference value :  6.25165e-06
 Reference value :  6.25228e-06
 Reference value :  6.25298e-06
 Reference value :  6.25371e-06
 Reference value :  6.25463e-06
 Reference value :  6.25565e-06
 Reference value :  6.25691e-06
 Reference value :  6.25800e-06
 Reference value :  6.25912e-06
 Reference value :  6.26036e-06
 Reference value :  6.26213e-06
 Reference value :  6.26425e-06
 Reference value :  6.26806e-06
 Reference value :  6.27409e-06
 Reference value :  6.28468e-06
 Reference value :  6.30454e-06
 Reference value :  6.34427e-06
 Reference value :  6.42371e-06
 Reference value :  6.50000e-06
 Reference value :  6.50001e-06
 Reference value :  6.50003e-06
 Reference value :  6.50007e-06
 Reference value :  6.50010e-06
 Reference value :  6.50010e-06
 Reference value :  6.50010e-06
 Reference value :  6.50010e-06
 Reference value :  6.50011e-06
 Reference value :  6.50012e-06
 Reference value :  6.50013e-06
 Reference value :  6.50017e-06
 Reference value :  6.50023e-06
 Reference value :  6.50036e-06
 Reference value :  6.50062e-06
 Reference value :  6.50109e-06
 Reference value :  6.50175e-06
 Reference value :  6.50246e-06
 Reference value :  6.50308e-06
 Reference value :  6.50385e-06
 Reference value :  6.50480e-06
 Reference value :  6.50576e-06
 Reference value :  6.50669e-06
 Reference value :  6.50782e-06
 Reference value :  6.50899e-06
 Reference value :  6.51101e-06
 Reference value :  6.51289e-06
 Reference value :  6.51451e-06
 Reference value :  6.51624e-06
 Reference value :  6.51863e-06
 Reference value :  6.52094e-06
 Reference value :  6.52513e-06
 Reference value :  6.53086e-06
 Reference value :  6.54039e-06
 Reference value :  6.55611e-06
 Reference value :  6.58399e-06
 Reference value :  6.63225e-06
 Reference value :  6.72070e-06
 Reference value :  6.75010e-06
 Reference value :  6.75011e-06
 Reference value :  6.75013e-06
 Reference value :  6.75017e-06
 Reference value :  6.75020e-06
 Reference value :  6.75020e-06
 Reference value :  6.75020e-06
 Reference value :  6.75020e-06
 Reference value :  6.75021e-06
 Reference value :  6.75022e-06
 Reference value :  6.75023e-06
 Reference value :  6.75027e-06
 Reference value :  6.75033e-06
 Reference value :  6.75041e-06
 Reference value :  6.75058e-06
 Reference value :  6.75080e-06
 Reference value :  6.75107e-06
 Reference value :  6.75163e-06
 Reference value :  6.75225e-06
 Reference value :  6.75292e-06
 Reference value :  6.75365e-06
 Reference value :  6.75457e-06
 Reference value :  6.75558e-06
 Reference value :  6.75681e-06
 Reference value :  6.75778e-06
 Reference value :  6.75883e-06
 Reference value :  6.75987e-06
 Reference value :  6.76097e-06
 Reference value :  6.76218e-06
 Reference value :  6.76354e-06
 Reference value :  6.76503e-06
 Reference value :  6.76752e-06
 Reference value :  6.77019e-06
 Reference value :  6.77436e-06
 Reference value :  6.78089e-06
 Reference value :  6.79393e-06
 Reference value :  6.81482e-06
 Reference value :  6.85644e-06
 Reference value :  6.93969e-06
 Reference value :  7.00000e-06
 Reference value :  7.00001e-06
 Reference value :  7.00003e-06
 Reference value :  7.00007e-06
 Reference value :  7.00010e-06
 Reference value :  7.00010e-06
 Reference value :  7.00010e-06
 Reference value :  7.00010e-06
 Reference value :  7.00011e-06
 Reference value :  7.00012e-06
 Reference value :  7.00013e-06
 Reference value :  7.00017e-06
 Reference value :  7.00023e-06
 Reference value :  7.00036e-06
 Reference value :  7.00062e-06
 Reference value :  7.00109e-06
 Reference value :  7.00174e-06
 Reference value :  7.00246e-06
 Reference value :  7.00308e-06
 Reference value :  7.00385e-06
 Reference value :  7.00481e-06
 Reference value :  7.00571e-06
 Reference value :  7.00665e-06
 Reference value :  7.00738e-06
 Reference value :  7.00823e-06
 Reference value :  7.00910e-06
 Reference value :  7.00995e-06
 Reference value :  7.01104e-06
 Reference value :  7.01222e-06
 Reference value :  7.01456e-06
 Reference value :  7.01713e-06
 Reference value :  7.01907e-06
 Reference value :  7.02114e-06
 Reference value :  7.02312e-06
 Reference value :  7.02548e-06
 Reference value :  7.02742e-06
 Reference value :  7.02895e-06
 Reference value :  7.03036e-06
 Reference value :  7.03176e-06
 Reference value :  7.03325e-06
 Reference value :  7.03489e-06
 Reference value :  7.03731e-06
 Reference value :  7.03930e-06
 Reference value :  7.04134e-06
 Reference value :  7.04350e-06
 Reference value :  7.04765e-06
 Reference value :  7.05221e-06
 Reference value :  7.05630e-06
 Reference value :  7.06094e-06
 Reference value :  7.06723e-06
 Reference value :  7.07357e-06
 Reference value :  7.08627e-06
 Reference value :  7.10567e-06
 Reference value :  7.13476e-06
 Reference value :  7.18258e-06
 Reference value :  7.22883e-06
 Reference value :  7.25010e-06
 Reference value :  7.25011e-06
 Reference value :  7.25013e-06
 Reference value :  7.25017e-06
 Reference value :  7.25020e-06
 Reference value :  7.25020e-06
 Reference value :  7.25020e-06
 Reference value :  7.25020e-06
 Reference value :  7.25021e-06
 Reference value :  7.25022e-06
 Reference value :  7.25023e-06
 Reference value :  7.25027e-06
 Reference value :  7.25033e-06
 Reference value :  7.25042e-06
 Reference value :  7.25059e-06
 Reference value :  7.25077e-06
 Reference value :  7.25107e-06
 Reference value :  7.25167e-06
 Reference value :  7.25229e-06
 Reference value :  7.25299e-06
 Reference value :  7.25372e-06
 Reference value :  7.25465e-06
 Reference value :  7.25566e-06
 Reference value :  7.25660e-06
 Reference value :  7.25780e-06
 Reference value :  7.25891e-06
 Reference value :  7.26011e-06
 Reference value :  7.26181e-06
 Reference value :  7.26404e-06
 Reference value :  7.26789e-06
 Reference value :  7.27353e-06
 Reference value :  7.28480e-06
 Reference value :  7.29898e-06
 Reference value :  7.30909e-06
 Reference value :  7.32015e-06
 Reference value :  7.33659e-06
 Reference value :  7.35484e-06
 Reference value :  7.38465e-06
 Reference value :  7.42591e-06
 Reference value :  7.49821e-06
 Reference value :  7.50000e-06
 Reference value :  7.50001e-06
 Reference value :  7.50003e-06
 Reference value :  7.50007e-06
 Reference value :  7.50010e-06
 Reference value :  7.50010e-06
 Reference value :  7.50010e-06
 Reference value :  7.50010e-06
 Reference value :  7.50011e-06
 Reference value :  7.50012e-06
 Reference value :  7.50013e-06
 Reference value :  7.50017e-06
 Reference value :  7.50023e-06
 Reference value :  7.50036e-06
 Reference value :  7.50063e-06
 Reference value :  7.50110e-06
 Reference value :  7.50172e-06
 Reference value :  7.50245e-06
 Reference value :  7.50308e-06
 Reference value :  7.50384e-06
 Reference value :  7.50475e-06
 Reference value :  7.50573e-06
 Reference value :  7.50663e-06
 Reference value :  7.50781e-06
 Reference value :  7.50903e-06
 Reference value :  7.51070e-06
 Reference value :  7.51259e-06
 Reference value :  7.51411e-06
 Reference value :  7.51574e-06
 Reference value :  7.51760e-06
 Reference value :  7.51960e-06
 Reference value :  7.52311e-06
 Reference value :  7.52803e-06
 Reference value :  7.53656e-06
 Reference value :  7.55079e-06
 Reference value :  7.57869e-06
 Reference value :  7.61186e-06
 Reference value :  7.67820e-06
 Reference value :  7.75010e-06
 Reference value :  7.75011e-06
 Reference value :  7.75013e-06
 Reference value :  7.75017e-06
 Reference value :  7.75020e-06
 Reference value :  7.75020e-06
 Reference value :  7.75020e-06
 Reference value :  7.75020e-06
 Reference value :  7.75021e-06
 Reference value :  7.75022e-06
 Reference value :  7.75023e-06
 Reference value :  7.75027e-06
 Reference value :  7.75033e-06
 Reference value :  7.75042e-06
 Reference value :  7.75059e-06
 Reference value :  7.75082e-06
 Reference value :  7.75109e-06
 Reference value :  7.75165e-06
 Reference value :  7.75226e-06
 Reference value :  7.75292e-06
 Reference value :  7.75365e-06
 Reference value :  7.75457e-06
 Reference value :  7.75558e-06
 Reference value :  7.75658e-06
 Reference value :  7.75763e-06
 Reference value :  7.75858e-06
 Reference value :  7.75957e-06
 Reference value :  7.76071e-06
 Reference value :  7.76195e-06
 Reference value :  7.76330e-06
 Reference value :  7.76487e-06
 Reference value :  7.76729e-06
 Reference value :  7.76993e-06
 Reference value :  7.77426e-06
 Reference value :  7.78140e-06
 Reference value :  7.79567e-06
 Reference value :  7.81986e-06
 Reference value :  7.86572e-06
 Reference value :  7.94940e-06
 Reference value :  8.00000e-06
 Reference value :  8.00001e-06
 Reference value :  8.00003e-06
 Reference value :  8.00007e-06
 Reference value :  8.00010e-06
 Reference value :  8.00010e-06
 Reference value :  8.00010e-06
 Reference value :  8.00010e-06
 Reference value :  8.00011e-06
 Reference value :  8.00012e-06
 Reference value :  8.00013e-06
 Reference value :  8.00017e-06
 Reference value :  8.00023e-06
 Reference value :  8.00036e-06
 Reference value :  8.00063e-06
 Reference value :  8.00110e-06
 Reference value :  8.00172e-06
 Reference value :  8.00245e-06
 Reference value :  8.00308e-06
 Reference value :  8.00385e-06
 Reference value :  8.00482e-06
 Reference value :  8.00575e-06
 Reference value :  8.00670e-06
 Reference value :  8.00746e-06
 Reference value :  8.00832e-06
 Reference value :  8.00927e-06
 Reference value :  8.01015e-06
 Reference value :  8.01154e-06
 Reference value :  8.01296e-06
 Reference value :  8.01428e-06
 Reference value :  8.01575e-06
 Reference value :  8.01710e-06
 Reference value :  8.01855e-06
 Reference value :  8.02012e-06
 Reference value :  8.02185e-06
 Reference value :  8.02533e-06
 Reference value :  8.02940e-06
 Reference value :  8.03331e-06
 Reference value :  8.03827e-06
 Reference value :  8.04146e-06
 Reference value :  8.04517e-06
 Reference value :  8.04988e-06
 Reference value :  8.05428e-06
 Reference value :  8.06010e-06
 Reference value :  8.07125e-06
 Reference value :  8.08398e-06
 Reference value :  8.10705e-06
 Reference value :  8.14269e-06
 Reference value :  8.19809e-06
 Reference value :  8.25010e-06
 Reference value :  8.25011e-06
 Reference value :  8.25013e-06
 Reference value :  8.25017e-06
 Reference value :  8.25020e-06
 Reference value :  8.25020e-06
 Reference value :  8.25020e-06
 Reference value :  8.25020e-06
 Reference value :  8.25021e-06
 Reference value :  8.25022e-06
 Reference value :  8.25023e-06
 Reference value :  8.25027e-06
 Reference value :  8.25033e-06
 Reference value :  8.25047e-06
 Reference value :  8.25064e-06
 Reference value :  8.25085e-06
 Reference value :  8.25127e-06
 Reference value :  8.25193e-06
 Reference value :  8.25261e-06
 Reference value :  8.25331e-06
 Reference value :  8.25422e-06
 Reference value :  8.25545e-06
 Reference value :  8.25660e-06
 Reference value :  8.25789e-06
 Reference value :  8.25952e-06
 Reference value :  8.26158e-06
 Reference value :  8.26424e-06
 Reference value :  8.26764e-06
 Reference value :  8.27256e-06
 Reference value :  8.28241e-06
 Reference value :  8.29627e-06
 Reference value :  8.32398e-06
 Reference value :  8.37941e-06
 Reference value :  8.48215e-06
 Reference value :  8.50000e-06
 Reference value :  8.50001e-06
 Reference value :  8.50003e-06
 Reference value :  8.50007e-06
 Reference value :  8.50010e-06
 Reference value :  8.50010e-06
 Reference value :  8.50010e-06
 Reference value :  8.50010e-06
 Reference value :  8.50011e-06
 Reference value :  8.50012e-06
 Reference value :  8.50013e-06
 Reference value :  8.50017e-06
 Reference value :  8.50023e-06
 Reference value :  8.50036e-06
 Reference value :  8.50063e-06
 Reference value :  8.50108e-06
 Reference value :  8.50175e-06
 Reference value :  8.50253e-06
 Reference value :  8.50323e-06
 Reference value :  8.50398e-06
 Reference value :  8.50475e-06
 Reference value :  8.50560e-06
 Reference value :  8.50655e-06
 Reference value :  8.50786e-06
 Reference value :  8.50877e-06
 Reference value :  8.50982e-06
 Reference value :  8.51108e-06
 Reference value :  8.51245e-06
 Reference value :  8.51518e-06
 Reference value :  8.51830e-06
 Reference value :  8.52453e-06
 Reference value :  8.53633e-06
 Reference value :  8.53764e-06
 Reference value :  8.54026e-06
 Reference value :  8.54550e-06
 Reference value :  8.55026e-06
 Reference value :  8.55414e-06
 Reference value :  8.55756e-06
 Reference value :  8.56062e-06
 Reference value :  8.56382e-06
 Reference value :  8.56600e-06
 Reference value :  8.56802e-06
 Reference value :  8.57016e-06
 Reference value :  8.57303e-06
 Reference value :  8.57618e-06
 Reference value :  8.58138e-06
 Reference value :  8.58832e-06
 Reference value :  8.59658e-06
 Reference value :  8.60468e-06
 Reference value :  8.61613e-06
 Reference value :  8.63026e-06
 Reference value :  8.64663e-06
 Reference value :  8.66853e-06
 Reference value :  8.69469e-06
 Reference value :  8.73469e-06
 Reference value :  8.75010e-06
 Reference value :  8.75011e-06
 Reference value :  8.75013e-06
 Reference value :  8.75017e-06
 Reference value :  8.75020e-06
 Reference value :  8.75020e-06
 Reference value :  8.75020e-06
 Reference value :  8.75020e-06
 Reference value :  8.75021e-06
 Reference value :  8.75022e-06
 Reference value :  8.75023e-06
 Reference value :  8.75027e-06
 Reference value :  8.75033e-06
 Reference value :  8.75047e-06
 Reference value :  8.75064e-06
 Reference value :  8.75091e-06
 Reference value :  8.75145e-06
 Reference value :  8.75211e-06
 Reference value :  8.75281e-06
 Reference value :  8.75354e-06
 Reference value :  8.75447e-06
 Reference value :  8.75552e-06
 Reference value :  8.75660e-06
 Reference value :  8.75765e-06
 Reference value :  8.75876e-06
 Reference value :  8.76010e-06
 Reference value :  8.76132e-06
 Reference value :  8.76285e-06
 Reference value :  8.76590e-06
 Reference value :  8.76988e-06
 Reference value :  8.77734e-06
 Reference value :  8.78891e-06
 Reference value :  8.80812e-06
 Reference value :  8.84085e-06
 Reference value :  8.90319e-06
 Reference value :  9.00000e-06
 Reference value :  9.00001e-06
 Reference value :  9.00003e-06
 Reference value :  9.00007e-06
 Reference value :  9.00010e-06
 Reference value :  9.00010e-06
 Reference value :  9.00010e-06
 Reference value :  9.00010e-06
 Reference value :  9.00011e-06
 Reference value :  9.00012e-06
 Reference value :  9.00013e-06
 Reference value :  9.00017e-06
 Reference value :  9.00023e-06
 Reference value :  9.00036e-06
 Reference value :  9.00056e-06
 Reference value :  9.00096e-06
 Reference value :  9.00147e-06
 Reference value :  9.00200e-06
 Reference value :  9.00276e-06
 Reference value :  9.00357e-06
 Reference value :  9.00432e-06
 Reference value :  9.00513e-06
 Reference value :  9.00613e-06
 Reference value :  9.00713e-06
 Reference value :  9.00839e-06
 Reference value :  9.00961e-06
 Reference value :  9.01141e-06
 Reference value :  9.01339e-06
 Reference value :  9.01531e-06
 Reference value :  9.01711e-06
 Reference value :  9.02000e-06
 Reference value :  9.02263e-06
 Reference value :  9.02615e-06
 Reference value :  9.02928e-06
 Reference value :  9.03252e-06
 Reference value :  9.03660e-06
 Reference value :  9.04235e-06
 Reference value :  9.04852e-06
 Reference value :  9.05638e-06
 Reference value :  9.06829e-06
 Reference value :  9.09072e-06
 Reference value :  9.12393e-06
 Reference value :  9.18297e-06
 Reference value :  9.25010e-06
 Reference value :  9.25011e-06
 Reference value :  9.25013e-06
 Reference value :  9.25017e-06
 Reference value :  9.25020e-06
 Reference value :  9.25020e-06
 Reference value :  9.25020e-06
 Reference value :  9.25020e-06
 Reference value :  9.25021e-06
 Reference value :  9.25022e-06
 Reference value :  9.25023e-06
 Reference value :  9.25027e-06
 Reference value :  9.25033e-06
 Reference value :  9.25047e-06
 Reference value :  9.25064e-06
 Reference value :  9.25091e-06
 Reference value :  9.25145e-06
 Reference value :  9.25210e-06
 Reference value :  9.25280e-06
 Reference value :  9.25353e-06
 Reference value :  9.25443e-06
 Reference value :  9.25552e-06
 Reference value :  9.25665e-06
 Reference value :  9.25768e-06
 Reference value :  9.25877e-06
 Reference value :  9.25976e-06
 Reference value :  9.26081e-06
 Reference value :  9.26233e-06
 Reference value :  9.26390e-06
 Reference value :  9.26703e-06
 Reference value :  9.27212e-06
 Reference value :  9.27993e-06
 Reference value :  9.29465e-06
 Reference value :  9.31770e-06
 Reference value :  9.35853e-06
 Reference value :  9.42766e-06
 Reference value :  9.50000e-06
 Reference value :  9.50001e-06
 Reference value :  9.50003e-06
 Reference value :  9.50007e-06
 Reference value :  9.50010e-06
 Reference value :  9.50010e-06
 Reference value :  9.50010e-06
 Reference value :  9.50010e-06
 Reference value :  9.50011e-06
 Reference value :  9.50012e-06
 Reference value :  9.50013e-06
 Reference value :  9.50017e-06
 Reference value :  9.50023e-06
 Reference value :  9.50036e-06
 Reference value :  9.50056e-06
 Reference value :  9.50096e-06
 Reference value :  9.50147e-06
 Reference value :  9.50201e-06
 Reference value :  9.50276e-06
 Reference value :  9.50346e-06
 Reference value :  9.50420e-06
 Reference value :  9.50499e-06
 Reference value :  9.50587e-06
 Reference value :  9.50691e-06
 Reference value :  9.50774e-06
 Reference value :  9.50867e-06
 Reference value :  9.50966e-06
 Reference value :  9.51084e-06
 Reference value :  9.51249e-06
 Reference value :  9.51493e-06
 Reference value :  9.51837e-06
 Reference value :  9.52259e-06
 Reference value :  9.52580e-06
 Reference value :  9.52870e-06
 Reference value :  9.53093e-06
 Reference value :  9.53300e-06
 Reference value :  9.53537e-06
 Reference value :  9.53767e-06
 Reference value :  9.54025e-06
 Reference value :  9.54399e-06
 Reference value :  9.54850e-06
 Reference value :  9.55522e-06
 Reference value :  9.56514e-06
 Reference value :  9.57993e-06
 Reference value :  9.60347e-06
 Reference value :  9.63890e-06
 Reference value :  9.69526e-06
 Reference value :  9.75010e-06
 Reference value :  9.75011e-06
 Reference value :  9.75013e-06
 Reference value :  9.75017e-06
 Reference value :  9.75020e-06
 Reference value :  9.75020e-06
 Reference value :  9.75020e-06
 Reference value :  9.75020e-06
 Reference value :  9.75021e-06
 Reference value :  9.75022e-06
 Reference value :  9.75023e-06
 Reference value :  9.75027e-06
 Reference value :  9.75033e-06
 Reference value :  9.75047e-06
 Reference value :  9.75064e-06
 Reference value :  9.75091e-06
 Reference value :  9.75145e-06
 Reference value :  9.75210e-06
 Reference value :  9.75288e-06
 Reference value :  9.75358e-06
 Reference value :  9.75455e-06
 Reference value :  9.75561e-06
 Reference value :  9.75656e-06
 Reference value :  9.75766e-06
 Reference value :  9.75882e-06
 Reference value :  9.76001e-06
 Reference value :  9.76153e-06
 Reference value :  9.76422e-06
 Reference value :  9.76759e-06
 Reference value :  9.77323e-06
 Reference value :  9.78409e-06
 Reference value :  9.79986e-06
 Reference value :  9.83141e-06
 Reference value :  9.89452e-06
 Reference value :  1.00000e-05
 Reference value :  1.00000e-05
 Reference value :  1.00000e-05
 Reference value :  1.00001e-05
 Reference value :  1.00001e-05
 Reference value :  1.00001e-05
 Reference value :  1.00001e-05
 Reference value :  1.00001e-05
 Reference value :  1.00001e-05
 Reference value :  1.00001e-05
 Reference value :  1.00001e-05
 Reference value :  1.00002e-05
 Reference value :  1.00002e-05
 Reference value :  1.00004e-05
 Reference value :  1.00006e-05
 Reference value :  1.00010e-05
 Reference value :  1.00015e-05
 Reference value :  1.00020e-05
 Reference value :  1.00027e-05
 Reference value :  1.00034e-05
 Reference value :  1.00042e-05
 Reference value :  1.00050e-05
 Reference value :  1.00059e-05
 Reference value :  1.00070e-05
 Reference value :  1.00080e-05
 Reference value :  1.00097e-05
 Reference value :  1.00112e-05
 Reference value :  1.00131e-05
 Reference value :  1.00147e-05
 Reference value :  1.00164e-05
 Reference value :  1.00186e-05
 Reference value :  1.00209e-05
 Reference value :  1.00247e-05
 Reference value :  1.00297e-05
 Reference value :  1.00374e-05
 Reference value :  1.00496e-05
 Reference value :  1.00712e-05
 Reference value :  1.01102e-05
 Reference value :  1.01823e-05
 Reference value :  1.02501e-05
 Reference value :  1.02501e-05
 Reference value :  1.02501e-05
 Reference value :  1.02502e-05
 Reference value :  1.02502e-05
 Reference value :  1.02502e-05
 Reference value :  1.02502e-05
 Reference value :  1.02502e-05
 Reference value :  1.02502e-05
 Reference value :  1.02502e-05
 Reference value :  1.02502e-05
 Reference value :  1.02503e-05
 Reference value :  1.02503e-05
 Reference value :  1.02505e-05
 Reference value :  1.02506e-05
 Reference value :  1.02509e-05
 Reference value :  1.02515e-05
 Reference value :  1.02521e-05
 Reference value :  1.02529e-05
 Reference value :  1.02536e-05
 Reference value :  1.02545e-05
 Reference value :  1.02556e-05
 Reference value :  1.02565e-05
 Reference value :  1.02576e-05
 Reference value :  1.02585e-05
 Reference value :  1.02595e-05
 Reference value :  1.02607e-05
 Reference value :  1.02620e-05
 Reference value :  1.02646e-05
 Reference value :  1.02685e-05
 Reference value :  1.02752e-05
 Reference value :  1.02878e-05
 Reference value :  1.03086e-05
 Reference value :  1.03476e-05
 Reference value :  1.04255e-05
 Reference value :  1.05000e-05
 Reference value :  1.05000e-05
 Reference value :  1.05000e-05
 Reference value :  1.05001e-05
 Reference value :  1.05001e-05
 Reference value :  1.05001e-05
 Reference value :  1.05001e-05
 Reference value :  1.05001e-05
 Reference value :  1.05001e-05
 Reference value :  1.05001e-05
 Reference value :  1.05001e-05
 Reference value :  1.05002e-05
 Reference value :  1.05002e-05
 Reference value :  1.05004e-05
 Reference value :  1.05006e-05
 Reference value :  1.05010e-05
 Reference value :  1.05015e-05
 Reference value :  1.05020e-05
 Reference value :  1.05027e-05
 Reference value :  1.05034e-05
 Reference value :  1.05042e-05
 Reference value :  1.05050e-05
 Reference value :  1.05059e-05
 Reference value :  1.05066e-05
 Reference value :  1.05075e-05
 Reference value :  1.05082e-05
 Reference value :  1.05090e-05
 Reference value :  1.05101e-05
 Reference value :  1.05113e-05
 Reference value :  1.05133e-05
 Reference value :  1.05157e-05
 Reference value :  1.05188e-05
 Reference value :  1.05223e-05
 Reference value :  1.05251e-05
 Reference value :  1.05273e-05
 Reference value :  1.05295e-05
 Reference value :  1.05316e-05
 Reference value :  1.05338e-05
 Reference value :  1.05363e-05
 Reference value :  1.05395e-05
 Reference value :  1.05448e-05
 Reference value :  1.05519e-05
 Reference value :  1.05643e-05
 Reference value :  1.05830e-05
 Reference value :  1.06137e-05
 Reference value :  1.06629e-05
 Reference value :  1.07435e-05
 Reference value :  1.07501e-05
 Reference value :  1.07501e-05
 Reference value :  1.07501e-05
 Reference value :  1.07502e-05
 Reference value :  1.07502e-05
 Reference value :  1.07502e-05
 Reference value :  1.07502e-05
 Reference value :  1.07502e-05
 Reference value :  1.07502e-05
 Reference value :  1.07502e-05
 Reference value :  1.07502e-05
 Reference value :  1.07503e-05
 Reference value :  1.07503e-05
 Reference value :  1.07505e-05
 Reference value :  1.07506e-05
 Reference value :  1.07509e-05
 Reference value :  1.07515e-05
 Reference value :  1.07521e-05
 Reference value :  1.07529e-05
 Reference value :  1.07536e-05
 Reference value :  1.07545e-05
 Reference value :  1.07556e-05
 Reference value :  1.07566e-05
 Reference value :  1.07577e-05
 Reference value :  1.07588e-05
 Reference value :  1.07604e-05
 Reference value :  1.07625e-05
 Reference value :  1.07651e-05
 Reference value :  1.07690e-05
 Reference value :  1.07758e-05
 Reference value :  1.07864e-05
 Reference value :  1.08044e-05
 Reference value :  1.08403e-05
 Reference value :  1.09043e-05
 Reference value :  1.10000e-05
 Reference value :  1.10000e-05
 Reference value :  1.10000e-05
 Reference value :  1.10001e-05
 Reference value :  1.10001e-05
 Reference value :  1.10001e-05
 Reference value :  1.10001e-05
 Reference value :  1.10001e-05
 Reference value :  1.10001e-05
 Reference value :  1.10001e-05
 Reference value :  1.10001e-05
 Reference value :  1.10002e-05
 Reference value :  1.10002e-05
 Reference value :  1.10004e-05
 Reference value :  1.10005e-05
 Reference value :  1.10009e-05
 Reference value :  1.10014e-05
 Reference value :  1.10019e-05
 Reference value :  1.10027e-05
 Reference value :  1.10034e-05
 Reference value :  1.10041e-05
 Reference value :  1.10049e-05
 Reference value :  1.10057e-05
 Reference value :  1.10067e-05
 Reference value :  1.10079e-05
 Reference value :  1.10095e-05
 Reference value :  1.10117e-05
 Reference value :  1.10132e-05
 Reference value :  1.10148e-05
 Reference value :  1.10165e-05
 Reference value :  1.10188e-05
 Reference value :  1.10213e-05
 Reference value :  1.10255e-05
 Reference value :  1.10314e-05
 Reference value :  1.10408e-05
 Reference value :  1.10587e-05
 Reference value :  1.10879e-05
 Reference value :  1.11403e-05
 Reference value :  1.12315e-05
 Reference value :  1.12501e-05
 Reference value :  1.12501e-05
 Reference value :  1.12501e-05
 Reference value :  1.12502e-05
 Reference value :  1.12502e-05
 Reference value :  1.12502e-05
 Reference value :  1.12502e-05
 Reference value :  1.12502e-05
 Reference value :  1.12502e-05
 Reference value :  1.12502e-05
 Reference value :  1.12502e-05
 Reference value :  1.12503e-05
 Reference value :  1.12503e-05
 Reference value :  1.12505e-05
 Reference value :  1.12506e-05
 Reference value :  1.12509e-05
 Reference value :  1.12515e-05
 Reference value :  1.12521e-05
 Reference value :  1.12529e-05
 Reference value :  1.12536e-05
 Reference value :  1.12545e-05
 Reference value :  1.12555e-05
 Reference value :  1.12565e-05
 Reference value :  1.12575e-05
 Reference value :  1.12585e-05
 Reference value :  1.12595e-05
 Reference value :  1.12608e-05
 Reference value :  1.12632e-05
 Reference value :  1.12664e-05
 Reference value :  1.12709e-05
 Reference value :  1.12791e-05
 Reference value :  1.12931e-05
 Reference value :  1.13163e-05
 Reference value :  1.13628e-05
 Reference value :  1.14555e-05
 Reference value :  1.15000e-05
 Reference value :  1.15000e-05
 Reference value :  1.15000e-05
 Reference value :  1.15001e-05
 Reference value :  1.15001e-05
 Reference value :  1.15001e-05
 Reference value :  1.15001e-05
 Reference value :  1.15001e-05
 Reference value :  1.15001e-05
 Reference value :  1.15001e-05
 Reference value :  1.15001e-05
 Reference value :  1.15002e-05
 Reference value :  1.15002e-05
 Reference value :  1.15004e-05
 Reference value :  1.15005e-05
 Reference value :  1.15009e-05
 Reference value :  1.15014e-05
 Reference value :  1.15019e-05
 Reference value :  1.15027e-05
 Reference value :  1.15034e-05
 Reference value :  1.15041e-05
 Reference value :  1.15049e-05
 Reference value :  1.15057e-05
 Reference value :  1.15067e-05
 Reference value :  1.15076e-05
 Reference value :  1.15084e-05
 Reference value :  1.15093e-05
 Reference value :  1.15105e-05
 Reference value :  1.15117e-05
 Reference value :  1.15140e-05
 Reference value :  1.15162e-05
 Reference value :  1.15190e-05
 Reference value :  1.15213e-05
 Reference value :  1.15234e-05
 Reference value :  1.15249e-05
 Reference value :  1.15264e-05
 Reference value :  1.15281e-05
 Reference value :  1.15297e-05
 Reference value :  1.15315e-05
 Reference value :  1.15347e-05
 Reference value :  1.15377e-05
 Reference value :  1.15438e-05
 Reference value :  1.15532e-05
 Reference value :  1.15681e-05
 Reference value :  1.15979e-05
 Reference value :  1.16456e-05
 Reference value :  1.17012e-05
 Reference value :  1.17325e-05
 Reference value :  1.17501e-05
 Reference value :  1.17501e-05
 Reference value :  1.17501e-05
 Reference value :  1.17502e-05
 Reference value :  1.17502e-05
 Reference value :  1.17502e-05
 Reference value :  1.17502e-05
 Reference value :  1.17502e-05
 Reference value :  1.17502e-05
 Reference value :  1.17502e-05
 Reference value :  1.17502e-05
 Reference value :  1.17503e-05
 Reference value :  1.17503e-05
 Reference value :  1.17505e-05
 Reference value :  1.17506e-05
 Reference value :  1.17509e-05
 Reference value :  1.17515e-05
 Reference value :  1.17521e-05
 Reference value :  1.17529e-05
 Reference value :  1.17536e-05
 Reference value :  1.17545e-05
 Reference value :  1.17556e-05
 Reference value :  1.17565e-05
 Reference value :  1.17575e-05
 Reference value :  1.17584e-05
 Reference value :  1.17598e-05
 Reference value :  1.17612e-05
 Reference value :  1.17639e-05
 Reference value :  1.17671e-05
 Reference value :  1.17723e-05
 Reference value :  1.17826e-05
 Reference value :  1.17982e-05
 Reference value :  1.18280e-05
 Reference value :  1.18878e-05
 Reference value :  1.20000e-05
 Reference value :  1.20000e-05
 Reference value :  1.20000e-05
 Reference value :  1.20001e-05
 Reference value :  1.20001e-05
 Reference value :  1.20001e-05
 Reference value :  1.20001e-05
 Reference value :  1.20001e-05
 Reference value :  1.20001e-05
 Reference value :  1.20001e-05
 Reference value :  1.20001e-05
 Reference value :  1.20002e-05
 Reference value :  1.20002e-05
 Reference value :  1.20004e-05
 Reference value :  1.20005e-05
 Reference value :  1.20009e-05
 Reference value :  1.20014e-05
 Reference value :  1.20019e-05
 Reference value :  1.20027e-05
 Reference value :  1.20034e-05
 Reference value :  1.20041e-05
 Reference value :  1.20049e-05
 Reference value :  1.20058e-05
 Reference value :  1.20068e-05
 Reference value :  1.20079e-05
 Reference value :  1.20096e-05
 Reference value :  1.20111e-05
 Reference value :  1.20128e-05
 Reference value :  1.20145e-05
 Reference value :  1.20163e-05
 Reference value :  1.20181e-05
 Reference value :  1.20206e-05
 Reference value :  1.20235e-05
 Reference value :  1.20284e-05
 Reference value :  1.20358e-05
 Reference value :  1.20481e-05
 Reference value :  1.20702e-05
 Reference value :  1.21076e-05
 Reference value :  1.21757e-05
 Reference value :  1.22501e-05
 Reference value :  1.22501e-05
 Reference value :  1.22501e-05
 Reference value :  1.22502e-05
 Reference value :  1.22502e-05
 Reference value :  1.22502e-05
 Reference value :  1.22502e-05
 Reference value :  1.22502e-05
 Reference value :  1.22502e-05
 Reference value :  1.22502e-05
 Reference value :  1.22502e-05
 Reference value :  1.22503e-05
 Reference value :  1.22503e-05
 Reference value :  1.22505e-05
 Reference value :  1.22506e-05
 Reference value :  1.22509e-05
 Reference value :  1.22515e-05
 Reference value :  1.22521e-05
 Reference value :  1.22529e-05
 Reference value :  1.22536e-05
 Reference value :  1.22545e-05
 Reference value :  1.22556e-05
 Reference value :  1.22565e-05
 Reference value :  1.22575e-05
 Reference value :  1.22584e-05
 Reference value :  1.22594e-05
 Reference value :  1.22606e-05
 Reference value :  1.22630e-05
 Reference value :  1.22661e-05
 Reference value :  1.22706e-05
 Reference value :  1.22785e-05
 Reference value :  1.22942e-05
 Reference value :  1.23241e-05
 Reference value :  1.23841e-05
 Reference value :  1.25000e-05
 Reference value :  1.25000e-05
 Reference value :  1.25000e-05
 Reference value :  1.25001e-05
 Reference value :  1.25001e-05
 Reference value :  1.25001e-05
 Reference value :  1.25001e-05
 Reference value :  1.25001e-05
 Reference value :  1.25001e-05
 Reference value :  1.25001e-05
 Reference value :  1.25001e-05
 Reference value :  1.25002e-05
 Reference value :  1.25002e-05
 Reference value :  1.25004e-05
 Reference value :  1.25005e-05
 Reference value :  1.25009e-05
 Reference value :  1.25014e-05
 Reference value :  1.25019e-05
 Reference value :  1.25027e-05
 Reference value :  1.25034e-05
 Reference value :  1.25041e-05
 Reference value :  1.25049e-05
 Reference value :  1.25057e-05
 Reference value :  1.25066e-05
 Reference value :  1.25074e-05
 Reference value :  1.25084e-05
 Reference value :  1.25093e-05
 Reference value :  1.25104e-05
 Reference value :  1.25118e-05
 Reference value :  1.25133e-05
 Reference value :  1.25158e-05
 Reference value :  1.25184e-05
 Reference value :  1.25209e-05
 Reference value :  1.25234e-05
 Reference value :  1.25254e-05
 Reference value :  1.25272e-05
 Reference value :  1.25289e-05
 Reference value :  1.25306e-05
 Reference value :  1.25327e-05
 Reference value :  1.25353e-05
 Reference value :  1.25385e-05
 Reference value :  1.25434e-05
 Reference value :  1.25504e-05
 Reference value :  1.25606e-05
 Reference value :  1.25707e-05
 Reference value :  1.25811e-05
 Reference value :  1.25906e-05
 Reference value :  1.25988e-05
 Reference value :  1.26067e-05
 Reference value :  1.26135e-05
 Reference value :  1.26219e-05
 Reference value :  1.26340e-05
 Reference value :  1.26490e-05
 Reference value :  1.26627e-05
 Reference value :  1.26718e-05
 Reference value :  1.26789e-05
 Reference value :  1.26860e-05
 Reference value :  1.26927e-05
 Reference value :  1.27021e-05
 Reference value :  1.27137e-05
 Reference value :  1.27286e-05
 Reference value :  1.27498e-05
 Reference value :  1.27501e-05
 Reference value :  1.27501e-05
 Reference value :  1.27501e-05
 Reference value :  1.27501e-05
 Reference value :  1.27502e-05
 Reference value :  1.27502e-05
 Reference value :  1.27502e-05
 Reference value :  1.27502e-05
 Reference value :  1.27502e-05
 Reference value :  1.27502e-05
 Reference value :  1.27502e-05
 Reference value :  1.27502e-05
 Reference value :  1.27503e-05
 Reference value :  1.27503e-05
 Reference value :  1.27504e-05
 Reference value :  1.27506e-05
 Reference value :  1.27507e-05
 Reference value :  1.27510e-05
 Reference value :  1.27516e-05
 Reference value :  1.27523e-05
 Reference value :  1.27529e-05
 Reference value :  1.27537e-05
 Reference value :  1.27546e-05
 Reference value :  1.27556e-05
 Reference value :  1.27566e-05
 Reference value :  1.27577e-05
 Reference value :  1.27588e-05
 Reference value :  1.27604e-05
 Reference value :  1.27623e-05
 Reference value :  1.27650e-05
 Reference value :  1.27690e-05
 Reference value :  1.27757e-05
 Reference value :  1.27893e-05
 Reference value :  1.28163e-05
 Reference value :  1.28705e-05
 Reference value :  1.29787e-05
 Reference value :  1.30000e-05
 Reference value :  1.30000e-05
 Reference value :  1.30000e-05
 Reference value :  1.30001e-05
 Reference value :  1.30001e-05
 Reference value :  1.30001e-05
 Reference value :  1.30001e-05
 Reference value :  1.30001e-05
 Reference value :  1.30001e-05
 Reference value :  1.30001e-05
 Reference value :  1.30001e-05
 Reference value :  1.30002e-05
 Reference value :  1.30002e-05
 Reference value :  1.30004e-05
 Reference value :  1.30006e-05
 Reference value :  1.30011e-05
 Reference value :  1.30018e-05
 Reference value :  1.30025e-05
 Reference value :  1.30031e-05
 Reference value :  1.30039e-05
 Reference value :  1.30047e-05
 Reference value :  1.30055e-05
 Reference value :  1.30064e-05
 Reference value :  1.30074e-05
 Reference value :  1.30087e-05
 Reference value :  1.30103e-05
 Reference value :  1.30115e-05
 Reference value :  1.30129e-05
 Reference value :  1.30146e-05
 Reference value :  1.30162e-05
 Reference value :  1.30181e-05
 Reference value :  1.30217e-05
 Reference value :  1.30286e-05
 Reference value :  1.30413e-05
 Reference value :  1.30667e-05
 Reference value :  1.31174e-05
 Reference value :  1.32190e-05
 Reference value :  1.32501e-05
 Reference value :  1.32501e-05
 Reference value :  1.32501e-05
 Reference value :  1.32502e-05
 Reference value :  1.32502e-05
 Reference value :  1.32502e-05
 Reference value :  1.32502e-05
 Reference value :  1.32502e-05
 Reference value :  1.32502e-05
 Reference value :  1.32502e-05
 Reference value :  1.32502e-05
 Reference value :  1.32503e-05
 Reference value :  1.32503e-05
 Reference value :  1.32504e-05
 Reference value :  1.32506e-05
 Reference value :  1.32508e-05
 Reference value :  1.32511e-05
 Reference value :  1.32517e-05
 Reference value :  1.32523e-05
 Reference value :  1.32530e-05
 Reference value :  1.32538e-05
 Reference value :  1.32547e-05
 Reference value :  1.32555e-05
 Reference value :  1.32565e-05
 Reference value :  1.32573e-05
 Reference value :  1.32582e-05
 Reference value :  1.32592e-05
 Reference value :  1.32603e-05
 Reference value :  1.32626e-05
 Reference value :  1.32656e-05
 Reference value :  1.32698e-05
 Reference value :  1.32769e-05
 Reference value :  1.32910e-05
 Reference value :  1.33193e-05
 Reference value :  1.33759e-05
 Reference value :  1.34890e-05
 Reference value :  1.35000e-05
 Reference value :  1.35000e-05
 Reference value :  1.35000e-05
 Reference value :  1.35001e-05
 Reference value :  1.35001e-05
 Reference value :  1.35001e-05
 Reference value :  1.35001e-05
 Reference value :  1.35001e-05
 Reference value :  1.35001e-05
 Reference value :  1.35001e-05
 Reference value :  1.35001e-05
 Reference value :  1.35002e-05
 Reference value :  1.35002e-05
 Reference value :  1.35004e-05
 Reference value :  1.35006e-05
 Reference value :  1.35011e-05
 Reference value :  1.35018e-05
 Reference value :  1.35025e-05
 Reference value :  1.35031e-05
 Reference value :  1.35039e-05
 Reference value :  1.35047e-05
 Reference value :  1.35056e-05
 Reference value :  1.35065e-05
 Reference value :  1.35073e-05
 Reference value :  1.35080e-05
 Reference value :  1.35089e-05
 Reference value :  1.35100e-05
 Reference value :  1.35112e-05
 Reference value :  1.35135e-05
 Reference value :  1.35159e-05
 Reference value :  1.35193e-05
 Reference value :  1.35228e-05
 Reference value :  1.35260e-05
 Reference value :  1.35284e-05
 Reference value :  1.35306e-05
 Reference value :  1.35332e-05
 Reference value :  1.35356e-05
 Reference value :  1.35385e-05
 Reference value :  1.35418e-05
 Reference value :  1.35475e-05
 Reference value :  1.35538e-05
 Reference value :  1.35609e-05
 Reference value :  1.35659e-05
 Reference value :  1.35710e-05
 Reference value :  1.35764e-05
 Reference value :  1.35824e-05
 Reference value :  1.35904e-05
 Reference value :  1.35969e-05
 Reference value :  1.36046e-05
 Reference value :  1.36173e-05
 Reference value :  1.36334e-05
 Reference value :  1.36578e-05
 Reference value :  1.36933e-05
 Reference value :  1.37501e-05
 Reference value :  1.37501e-05
 Reference value :  1.37501e-05
 Reference value :  1.37502e-05
 Reference value :  1.37502e-05
 Reference value :  1.37502e-05
 Reference value :  1.37502e-05
 Reference value :  1.37502e-05
 Reference value :  1.37502e-05
 Reference value :  1.37502e-05
 Reference value :  1.37502e-05
 Reference value :  1.37503e-05
 Reference value :  1.37503e-05
 Reference value :  1.37504e-05
 Reference value :  1.37506e-05
 Reference value :  1.37508e-05
 Reference value :  1.37511e-05
 Reference value :  1.37517e-05
 Reference value :  1.37523e-05
 Reference value :  1.37530e-05
 Reference value :  1.37538e-05
 Reference value :  1.37547e-05
 Reference value :  1.37558e-05
 Reference value :  1.37565e-05
 Reference value :  1.37574e-05
 Reference value :  1.37584e-05
 Reference value :  1.37595e-05
 Reference value :  1.37607e-05
 Reference value :  1.37631e-05
 Reference value :  1.37662e-05
 Reference value :  1.37707e-05
 Reference value :  1.37793e-05
 Reference value :  1.37966e-05
 Reference value :  1.38235e-05
 Reference value :  1.38485e-05
 Reference value :  1.38665e-05
 Reference value :  1.38836e-05
 Reference value :  1.39065e-05
 Reference value :  1.39269e-05
 Reference value :  1.39497e-05
 Reference value :  1.39936e-05
 Reference value :  1.40000e-05
 Reference value :  1.40000e-05
 Reference value :  1.40000e-05
 Reference value :  1.40001e-05
 Reference value :  1.40001e-05
 Reference value :  1.40001e-05
 Reference value :  1.40001e-05
 Reference value :  1.40001e-05
 Reference value :  1.40001e-05
 Reference value :  1.40001e-05
 Reference value :  1.40001e-05
 Reference value :  1.40002e-05
 Reference value :  1.40002e-05
 Reference value :  1.40004e-05
 Reference value :  1.40006e-05
 Reference value :  1.40011e-05
 Reference value :  1.40018e-05
 Reference value :  1.40025e-05
 Reference value :  1.40031e-05
 Reference value :  1.40038e-05
 Reference value :  1.40048e-05
 Reference value :  1.40058e-05
 Reference value :  1.40067e-05
 Reference value :  1.40078e-05
 Reference value :  1.40092e-05
 Reference value :  1.40108e-05
 Reference value :  1.40123e-05
 Reference value :  1.40136e-05
 Reference value :  1.40151e-05
 Reference value :  1.40167e-05
 Reference value :  1.40184e-05
 Reference value :  1.40219e-05
 Reference value :  1.40267e-05
 Reference value :  1.40364e-05
 Reference value :  1.40545e-05
 Reference value :  1.40871e-05
 Reference value :  1.41521e-05
 Reference value :  1.42501e-05
 Reference value :  1.42501e-05
 Reference value :  1.42501e-05
 Reference value :  1.42502e-05
 Reference value :  1.42502e-05
 Reference value :  1.42502e-05
 Reference value :  1.42502e-05
 Reference value :  1.42502e-05
 Reference value :  1.42502e-05
 Reference value :  1.42502e-05
 Reference value :  1.42502e-05
 Reference value :  1.42503e-05
 Reference value :  1.42503e-05
 Reference value :  1.42504e-05
 Reference value :  1.42506e-05
 Reference value :  1.42508e-05
 Reference value :  1.42511e-05
 Reference value :  1.42517e-05
 Reference value :  1.42523e-05
 Reference value :  1.42530e-05
 Reference value :  1.42538e-05
 Reference value :  1.42547e-05
 Reference value :  1.42557e-05
 Reference value :  1.42565e-05
 Reference value :  1.42574e-05
 Reference value :  1.42584e-05
 Reference value :  1.42593e-05
 Reference value :  1.42607e-05
 Reference value :  1.42621e-05
 Reference value :  1.42650e-05
 Reference value :  1.42688e-05
 Reference value :  1.42763e-05
 Reference value :  1.42915e-05
 Reference value :  1.43185e-05
 Reference value :  1.43727e-05
 Reference value :  1.44810e-05
 Reference value :  1.45000e-05
 Reference value :  1.45000e-05
 Reference value :  1.45000e-05
 Reference value :  1.45001e-05
 Reference value :  1.45001e-05
 Reference value :  1.45001e-05
 Reference value :  1.45001e-05
 Reference value :  1.45001e-05
 Reference value :  1.45001e-05
 Reference value :  1.45001e-05
 Reference value :  1.45001e-05
 Reference value :  1.45002e-05
 Reference value :  1.45002e-05
 Reference value :  1.45004e-05
 Reference value :  1.45006e-05
 Reference value :  1.45011e-05
 Reference value :  1.45018e-05
 Reference value :  1.45025e-05
 Reference value :  1.45031e-05
 Reference value :  1.45039e-05
 Reference value :  1.45048e-05
 Reference value :  1.45057e-05
 Reference value :  1.45067e-05
 Reference value :  1.45076e-05
 Reference value :  1.45086e-05
 Reference value :  1.45096e-05
 Reference value :  1.45108e-05
 Reference value :  1.45126e-05
 Reference value :  1.45149e-05
 Reference value :  1.45189e-05
 Reference value :  1.45238e-05
 Reference value :  1.45272e-05
 Reference value :  1.45301e-05
 Reference value :  1.45328e-05
 Reference value :  1.45355e-05
 Reference value :  1.45384e-05
 Reference value :  1.45416e-05
 Reference value :  1.45451e-05
 Reference value :  1.45489e-05
 Reference value :  1.45525e-05
 Reference value :  1.45566e-05
 Reference value :  1.45596e-05
 Reference value :  1.45630e-05
 Reference value :  1.45663e-05
 Reference value :  1.45701e-05
 Reference value :  1.45761e-05
 Reference value :  1.45834e-05
 Reference value :  1.45902e-05
 Reference value :  1.45983e-05
 Reference value :  1.46065e-05
 Reference value :  1.46222e-05
 Reference value :  1.46442e-05
 Reference value :  1.46862e-05
 Reference value :  1.47456e-05
 Reference value :  1.47501e-05
 Reference value :  1.47501e-05
 Reference value :  1.47501e-05
 Reference value :  1.47502e-05
 Reference value :  1.47502e-05
 Reference value :  1.47502e-05
 Reference value :  1.47502e-05
 Reference value :  1.47502e-05
 Reference value :  1.47502e-05
 Reference value :  1.47502e-05
 Reference value :  1.47502e-05
 Reference value :  1.47503e-05
 Reference value :  1.47503e-05
 Reference value :  1.47504e-05
 Reference value :  1.47506e-05
 Reference value :  1.47508e-05
 Reference value :  1.47511e-05
 Reference value :  1.47517e-05
 Reference value :  1.47523e-05
 Reference value :  1.47530e-05
 Reference value :  1.47537e-05
 Reference value :  1.47546e-05
 Reference value :  1.47557e-05
 Reference value :  1.47569e-05
 Reference value :  1.47580e-05
 Reference value :  1.47591e-05
 Reference value :  1.47604e-05
 Reference value :  1.47621e-05
 Reference value :  1.47642e-05
 Reference value :  1.47680e-05
 Reference value :  1.47740e-05
 Reference value :  1.47846e-05
 Reference value :  1.48044e-05
 Reference value :  1.48439e-05
 Reference value :  1.49230e-05
 Reference value :  1.50000e-05
 Reference value :  1.50000e-05
 Reference value :  1.50000e-05
 Reference value :  1.50001e-05
 Reference value :  1.50001e-05
 Reference value :  1.50001e-05
 Reference value :  1.50001e-05
 Reference value :  1.50001e-05
 Reference value :  1.50001e-05
 Reference value :  1.50001e-05
 Reference value :  1.50001e-05
 Reference value :  1.50002e-05
 Reference value :  1.50002e-05
[...]
 Reference value :  2.68006e-04
 Reference value :  2.68007e-04
 Reference value :  2.68008e-04
 Reference value :  2.68009e-04
 Reference value :  2.68011e-04
 Reference value :  2.68012e-04
 Reference value :  2.68014e-04
 Reference value :  2.68015e-04
 Reference value :  2.68017e-04
 Reference value :  2.68019e-04
 Reference value :  2.68022e-04
 Reference value :  2.68027e-04
 Reference value :  2.68036e-04
 Reference value :  2.68052e-04
 Reference value :  2.68082e-04
 Reference value :  2.68141e-04
 Reference value :  2.68250e-04
 Reference value :  2.68250e-04
 Reference value :  2.68250e-04
 Reference value :  2.68250e-04
 Reference value :  2.68250e-04
 Reference value :  2.68250e-04
 Reference value :  2.68250e-04
 Reference value :  2.68250e-04
 Reference value :  2.68250e-04
 Reference value :  2.68250e-04
 Reference value :  2.68250e-04
 Reference value :  2.68250e-04
 Reference value :  2.68250e-04
 Reference value :  2.68250e-04
 Reference value :  2.68251e-04
 Reference value :  2.68251e-04
 Reference value :  2.68251e-04
 Reference value :  2.68252e-04
 Reference value :  2.68252e-04
 Reference value :  2.68253e-04
 Reference value :  2.68254e-04
 Reference value :  2.68255e-04
 Reference value :  2.68256e-04
 Reference value :  2.68256e-04
 Reference value :  2.68257e-04
 Reference value :  2.68258e-04
 Reference value :  2.68259e-04
 Reference value :  2.68260e-04
 Reference value :  2.68262e-04
 Reference value :  2.68263e-04
 Reference value :  2.68266e-04
 Reference value :  2.68268e-04
 Reference value :  2.68272e-04
 Reference value :  2.68277e-04
 Reference value :  2.68287e-04
 Reference value :  2.68308e-04
 Reference value :  2.68350e-04
 Reference value :  2.68433e-04
 Reference value :  2.68500e-04
 Reference value :  2.68500e-04
 Reference value :  2.68500e-04
 Reference value :  2.68500e-04
 Reference value :  2.68500e-04
 Reference value :  2.68500e-04
 Reference value :  2.68500e-04
 Reference value :  2.68500e-04
 Reference value :  2.68500e-04
 Reference value :  2.68500e-04
 Reference value :  2.68500e-04
 Reference value :  2.68500e-04
 Reference value :  2.68500e-04
 Reference value :  2.68500e-04
 Reference value :  2.68501e-04
 Reference value :  2.68501e-04
 Reference value :  2.68502e-04
 Reference value :  2.68502e-04
 Reference value :  2.68503e-04
 Reference value :  2.68504e-04
 Reference value :  2.68505e-04
 Reference value :  2.68506e-04
 Reference value :  2.68506e-04
 Reference value :  2.68507e-04
 Reference value :  2.68508e-04
 Reference value :  2.68509e-04
 Reference value :  2.68510e-04
 Reference value :  2.68511e-04
 Reference value :  2.68513e-04
 Reference value :  2.68515e-04
 Reference value :  2.68517e-04
 Reference value :  2.68519e-04
 Reference value :  2.68522e-04
 Reference value :  2.68524e-04
 Reference value :  2.68526e-04
 Reference value :  2.68528e-04
 Reference value :  2.68530e-04
 Reference value :  2.68531e-04
 Reference value :  2.68533e-04
 Reference value :  2.68534e-04
 Reference value :  2.68537e-04
 Reference value :  2.68540e-04
 Reference value :  2.68543e-04
 Reference value :  2.68546e-04
 Reference value :  2.68549e-04
 Reference value :  2.68551e-04
 Reference value :  2.68554e-04
 Reference value :  2.68557e-04
 Reference value :  2.68562e-04
 Reference value :  2.68569e-04
 Reference value :  2.68577e-04
 Reference value :  2.68586e-04
 Reference value :  2.68598e-04
 Reference value :  2.68614e-04
 Reference value :  2.68647e-04
 Reference value :  2.68711e-04
 Reference value :  2.68750e-04
 Reference value :  2.68750e-04
 Reference value :  2.68750e-04
 Reference value :  2.68750e-04
 Reference value :  2.68750e-04
 Reference value :  2.68750e-04
 Reference value :  2.68750e-04
 Reference value :  2.68750e-04
 Reference value :  2.68750e-04
 Reference value :  2.68750e-04
 Reference value :  2.68750e-04
 Reference value :  2.68750e-04
 Reference value :  2.68750e-04
 Reference value :  2.68750e-04
 Reference value :  2.68751e-04
 Reference value :  2.68751e-04
 Reference value :  2.68751e-04
 Reference value :  2.68752e-04
 Reference value :  2.68752e-04
 Reference value :  2.68753e-04
 Reference value :  2.68754e-04
 Reference value :  2.68755e-04
 Reference value :  2.68756e-04
 Reference value :  2.68757e-04
 Reference value :  2.68757e-04
 Reference value :  2.68758e-04
 Reference value :  2.68760e-04
 Reference value :  2.68761e-04
 Reference value :  2.68763e-04
 Reference value :  2.68766e-04
 Reference value :  2.68771e-04
 Reference value :  2.68779e-04
 Reference value :  2.68797e-04
 Reference value :  2.68831e-04
 Reference value :  2.68866e-04
 Reference value :  2.68889e-04
 Reference value :  2.68912e-04
 Reference value :  2.68944e-04
 Reference value :  2.68996e-04
 Reference value :  2.69000e-04
 Reference value :  2.69000e-04
 Reference value :  2.69000e-04
 Reference value :  2.69000e-04
 Reference value :  2.69000e-04
 Reference value :  2.69000e-04
 Reference value :  2.69000e-04
 Reference value :  2.69000e-04
 Reference value :  2.69000e-04
 Reference value :  2.69000e-04
 Reference value :  2.69000e-04
 Reference value :  2.69000e-04
 Reference value :  2.69000e-04
 Reference value :  2.69000e-04
 Reference value :  2.69001e-04
 Reference value :  2.69001e-04
 Reference value :  2.69002e-04
 Reference value :  2.69002e-04
 Reference value :  2.69003e-04
 Reference value :  2.69004e-04
 Reference value :  2.69005e-04
 Reference value :  2.69006e-04
 Reference value :  2.69007e-04
 Reference value :  2.69008e-04
 Reference value :  2.69009e-04
 Reference value :  2.69011e-04
 Reference value :  2.69012e-04
 Reference value :  2.69014e-04
 Reference value :  2.69015e-04
 Reference value :  2.69017e-04
 Reference value :  2.69019e-04
 Reference value :  2.69022e-04
 Reference value :  2.69027e-04
 Reference value :  2.69037e-04
 Reference value :  2.69054e-04
 Reference value :  2.69085e-04
 Reference value :  2.69146e-04
 Reference value :  2.69246e-04
 Reference value :  2.69250e-04
 Reference value :  2.69250e-04
 Reference value :  2.69250e-04
 Reference value :  2.69250e-04
 Reference value :  2.69250e-04
 Reference value :  2.69250e-04
 Reference value :  2.69250e-04
 Reference value :  2.69250e-04
 Reference value :  2.69250e-04
 Reference value :  2.69250e-04
 Reference value :  2.69250e-04
 Reference value :  2.69250e-04
 Reference value :  2.69250e-04
 Reference value :  2.69250e-04
 Reference value :  2.69251e-04
 Reference value :  2.69251e-04
 Reference value :  2.69251e-04
 Reference value :  2.69252e-04
 Reference value :  2.69252e-04
 Reference value :  2.69253e-04
 Reference value :  2.69254e-04
 Reference value :  2.69255e-04
 Reference value :  2.69256e-04
 Reference value :  2.69256e-04
 Reference value :  2.69257e-04
 Reference value :  2.69258e-04
 Reference value :  2.69259e-04
 Reference value :  2.69260e-04
 Reference value :  2.69262e-04
 Reference value :  2.69263e-04
 Reference value :  2.69265e-04
 Reference value :  2.69267e-04
 Reference value :  2.69269e-04
 Reference value :  2.69274e-04
 Reference value :  2.69281e-04
 Reference value :  2.69293e-04
 Reference value :  2.69314e-04
 Reference value :  2.69349e-04
 Reference value :  2.69409e-04
 Reference value :  2.69500e-04
 Reference value :  2.69500e-04
 Reference value :  2.69500e-04
 Reference value :  2.69500e-04
 Reference value :  2.69500e-04
 Reference value :  2.69500e-04
 Reference value :  2.69500e-04
 Reference value :  2.69500e-04
 Reference value :  2.69500e-04
 Reference value :  2.69500e-04
 Reference value :  2.69500e-04
 Reference value :  2.69500e-04
 Reference value :  2.69500e-04
 Reference value :  2.69500e-04
 Reference value :  2.69501e-04
 Reference value :  2.69501e-04
 Reference value :  2.69502e-04
 Reference value :  2.69502e-04
 Reference value :  2.69503e-04
 Reference value :  2.69504e-04
 Reference value :  2.69505e-04
 Reference value :  2.69506e-04
 Reference value :  2.69507e-04
 Reference value :  2.69508e-04
 Reference value :  2.69509e-04
 Reference value :  2.69510e-04
 Reference value :  2.69511e-04
 Reference value :  2.69512e-04
 Reference value :  2.69514e-04
 Reference value :  2.69517e-04
 Reference value :  2.69519e-04
 Reference value :  2.69521e-04
 Reference value :  2.69523e-04
 Reference value :  2.69526e-04
 Reference value :  2.69528e-04
 Reference value :  2.69529e-04
 Reference value :  2.69531e-04
 Reference value :  2.69532e-04
 Reference value :  2.69534e-04
 Reference value :  2.69535e-04
 Reference value :  2.69537e-04
 Reference value :  2.69540e-04
 Reference value :  2.69545e-04
 Reference value :  2.69548e-04
 Reference value :  2.69552e-04
 Reference value :  2.69556e-04
 Reference value :  2.69563e-04
 Reference value :  2.69571e-04
 Reference value :  2.69587e-04
 Reference value :  2.69612e-04
 Reference value :  2.69663e-04
 Reference value :  2.69750e-04
 Reference value :  2.69750e-04
 Reference value :  2.69750e-04
 Reference value :  2.69750e-04
 Reference value :  2.69750e-04
 Reference value :  2.69750e-04
 Reference value :  2.69750e-04
 Reference value :  2.69750e-04
 Reference value :  2.69750e-04
 Reference value :  2.69750e-04
 Reference value :  2.69750e-04
 Reference value :  2.69750e-04
 Reference value :  2.69750e-04
 Reference value :  2.69750e-04
 Reference value :  2.69751e-04
 Reference value :  2.69751e-04
 Reference value :  2.69751e-04
 Reference value :  2.69752e-04
 Reference value :  2.69752e-04
 Reference value :  2.69753e-04
 Reference value :  2.69754e-04
 Reference value :  2.69755e-04
 Reference value :  2.69756e-04
 Reference value :  2.69757e-04
 Reference value :  2.69758e-04
 Reference value :  2.69759e-04
 Reference value :  2.69760e-04
 Reference value :  2.69762e-04
 Reference value :  2.69764e-04
 Reference value :  2.69767e-04
 Reference value :  2.69772e-04
 Reference value :  2.69780e-04
 Reference value :  2.69796e-04
 Reference value :  2.69823e-04
 Reference value :  2.69877e-04
 Reference value :  2.69985e-04
 Reference value :  2.70000e-04
 Reference value :  2.70000e-04
 Reference value :  2.70000e-04
 Reference value :  2.70000e-04
 Reference value :  2.70000e-04
 Reference value :  2.70000e-04
 Reference value :  2.70000e-04
 Reference value :  2.70000e-04
 Reference value :  2.70000e-04
 Reference value :  2.70000e-04
 Reference value :  2.70000e-04
 Reference value :  2.70000e-04
 Reference value :  2.70000e-04
 Reference value :  2.70000e-04
 Reference value :  2.70001e-04
 Reference value :  2.70001e-04
 Reference value :  2.70002e-04
 Reference value :  2.70002e-04
 Reference value :  2.70003e-04
 Reference value :  2.70004e-04
 Reference value :  2.70005e-04
 Reference value :  2.70006e-04
 Reference value :  2.70007e-04
 Reference value :  2.70008e-04
 Reference value :  2.70009e-04
 Reference value :  2.70010e-04
 Reference value :  2.70012e-04
 Reference value :  2.70014e-04
 Reference value :  2.70015e-04
 Reference value :  2.70017e-04
 Reference value :  2.70018e-04
 Reference value :  2.70022e-04
 Reference value :  2.70026e-04
 Reference value :  2.70034e-04
 Reference value :  2.70051e-04
 Reference value :  2.70084e-04
 Reference value :  2.70151e-04
 Reference value :  2.70250e-04
 Reference value :  2.70250e-04
 Reference value :  2.70250e-04
 Reference value :  2.70250e-04
 Reference value :  2.70250e-04
 Reference value :  2.70250e-04
 Reference value :  2.70250e-04
 Reference value :  2.70250e-04
 Reference value :  2.70250e-04
 Reference value :  2.70250e-04
 Reference value :  2.70250e-04
 Reference value :  2.70250e-04
 Reference value :  2.70250e-04
 Reference value :  2.70250e-04
 Reference value :  2.70251e-04
 Reference value :  2.70251e-04
 Reference value :  2.70251e-04
 Reference value :  2.70252e-04
 Reference value :  2.70252e-04
 Reference value :  2.70253e-04
 Reference value :  2.70254e-04
 Reference value :  2.70255e-04
 Reference value :  2.70256e-04
 Reference value :  2.70257e-04
 Reference value :  2.70258e-04
 Reference value :  2.70259e-04
 Reference value :  2.70260e-04
 Reference value :  2.70261e-04
 Reference value :  2.70262e-04
 Reference value :  2.70265e-04
 Reference value :  2.70269e-04
 Reference value :  2.70276e-04
 Reference value :  2.70289e-04
 Reference value :  2.70316e-04
 Reference value :  2.70371e-04
 Reference value :  2.70479e-04
 Reference value :  2.70500e-04
 Reference value :  2.70500e-04
 Reference value :  2.70500e-04
 Reference value :  2.70500e-04
 Reference value :  2.70500e-04
 Reference value :  2.70500e-04
 Reference value :  2.70500e-04
 Reference value :  2.70500e-04
 Reference value :  2.70500e-04
 Reference value :  2.70500e-04
 Reference value :  2.70500e-04
 Reference value :  2.70500e-04
 Reference value :  2.70500e-04
 Reference value :  2.70500e-04
 Reference value :  2.70501e-04
 Reference value :  2.70501e-04
 Reference value :  2.70502e-04
 Reference value :  2.70502e-04
 Reference value :  2.70503e-04
 Reference value :  2.70504e-04
 Reference value :  2.70505e-04
 Reference value :  2.70506e-04
 Reference value :  2.70507e-04
 Reference value :  2.70507e-04
 Reference value :  2.70508e-04
 Reference value :  2.70509e-04
 Reference value :  2.70510e-04
 Reference value :  2.70512e-04
 Reference value :  2.70515e-04
 Reference value :  2.70517e-04
 Reference value :  2.70521e-04
 Reference value :  2.70524e-04
 Reference value :  2.70527e-04
 Reference value :  2.70529e-04
 Reference value :  2.70531e-04
 Reference value :  2.70533e-04
 Reference value :  2.70535e-04
 Reference value :  2.70538e-04
 Reference value :  2.70539e-04
 Reference value :  2.70541e-04
 Reference value :  2.70544e-04
 Reference value :  2.70548e-04
 Reference value :  2.70554e-04
 Reference value :  2.70562e-04
 Reference value :  2.70573e-04
 Reference value :  2.70585e-04
 Reference value :  2.70594e-04
 Reference value :  2.70603e-04
 Reference value :  2.70615e-04
 Reference value :  2.70635e-04
 Reference value :  2.70656e-04
 Reference value :  2.70673e-04
 Reference value :  2.70691e-04
 Reference value :  2.70710e-04
 Reference value :  2.70728e-04
 Reference value :  2.70750e-04
 Reference value :  2.70750e-04
 Reference value :  2.70750e-04
 Reference value :  2.70750e-04
 Reference value :  2.70750e-04
 Reference value :  2.70750e-04
 Reference value :  2.70750e-04
 Reference value :  2.70750e-04
 Reference value :  2.70750e-04
 Reference value :  2.70750e-04
 Reference value :  2.70750e-04
 Reference value :  2.70750e-04
 Reference value :  2.70750e-04
 Reference value :  2.70750e-04
 Reference value :  2.70751e-04
 Reference value :  2.70751e-04
 Reference value :  2.70751e-04
 Reference value :  2.70752e-04
 Reference value :  2.70752e-04
 Reference value :  2.70753e-04
 Reference value :  2.70754e-04
 Reference value :  2.70755e-04
 Reference value :  2.70756e-04
 Reference value :  2.70757e-04
 Reference value :  2.70758e-04
 Reference value :  2.70759e-04
 Reference value :  2.70760e-04
 Reference value :  2.70762e-04
 Reference value :  2.70764e-04
 Reference value :  2.70768e-04
 Reference value :  2.70774e-04
 Reference value :  2.70786e-04
 Reference value :  2.70807e-04
 Reference value :  2.70848e-04
 Reference value :  2.70931e-04
 Reference value :  2.71000e-04
 Reference value :  2.71000e-04
 Reference value :  2.71000e-04
 Reference value :  2.71000e-04
 Reference value :  2.71000e-04
 Reference value :  2.71000e-04
 Reference value :  2.71000e-04
 Reference value :  2.71000e-04
 Reference value :  2.71000e-04
 Reference value :  2.71000e-04
 Reference value :  2.71000e-04
 Reference value :  2.71000e-04
 Reference value :  2.71000e-04
 Reference value :  2.71000e-04
 Reference value :  2.71001e-04
 Reference value :  2.71001e-04
 Reference value :  2.71002e-04
 Reference value :  2.71002e-04
 Reference value :  2.71003e-04
 Reference value :  2.71004e-04
 Reference value :  2.71005e-04
 Reference value :  2.71006e-04
 Reference value :  2.71007e-04
 Reference value :  2.71008e-04
 Reference value :  2.71009e-04
 Reference value :  2.71011e-04
 Reference value :  2.71013e-04
 Reference value :  2.71015e-04
 Reference value :  2.71016e-04
 Reference value :  2.71019e-04
 Reference value :  2.71021e-04
 Reference value :  2.71025e-04
 Reference value :  2.71031e-04
 Reference value :  2.71040e-04
 Reference value :  2.71057e-04
 Reference value :  2.71083e-04
 Reference value :  2.71131e-04
 Reference value :  2.71217e-04
 Reference value :  2.71250e-04
 Reference value :  2.71250e-04
 Reference value :  2.71250e-04
 Reference value :  2.71250e-04
 Reference value :  2.71250e-04
 Reference value :  2.71250e-04
 Reference value :  2.71250e-04
 Reference value :  2.71250e-04
 Reference value :  2.71250e-04
 Reference value :  2.71250e-04
 Reference value :  2.71250e-04
 Reference value :  2.71250e-04
 Reference value :  2.71250e-04
 Reference value :  2.71250e-04
 Reference value :  2.71251e-04
 Reference value :  2.71251e-04
 Reference value :  2.71251e-04
 Reference value :  2.71252e-04
 Reference value :  2.71252e-04
 Reference value :  2.71253e-04
 Reference value :  2.71254e-04
 Reference value :  2.71255e-04
 Reference value :  2.71256e-04
 Reference value :  2.71257e-04
 Reference value :  2.71258e-04
 Reference value :  2.71259e-04
 Reference value :  2.71260e-04
 Reference value :  2.71261e-04
 Reference value :  2.71262e-04
 Reference value :  2.71264e-04
 Reference value :  2.71269e-04
 Reference value :  2.71275e-04
 Reference value :  2.71288e-04
 Reference value :  2.71313e-04
 Reference value :  2.71365e-04
 Reference value :  2.71467e-04
 Reference value :  2.71500e-04
 Reference value :  2.71500e-04
 Reference value :  2.71500e-04
 Reference value :  2.71500e-04
 Reference value :  2.71500e-04
 Reference value :  2.71500e-04
 Reference value :  2.71500e-04
 Reference value :  2.71500e-04
 Reference value :  2.71500e-04
 Reference value :  2.71500e-04
 Reference value :  2.71500e-04
 Reference value :  2.71500e-04
 Reference value :  2.71500e-04
 Reference value :  2.71500e-04
 Reference value :  2.71501e-04
 Reference value :  2.71501e-04
 Reference value :  2.71502e-04
 Reference value :  2.71502e-04
 Reference value :  2.71503e-04
 Reference value :  2.71504e-04
 Reference value :  2.71505e-04
 Reference value :  2.71506e-04
 Reference value :  2.71507e-04
 Reference value :  2.71508e-04
 Reference value :  2.71509e-04
 Reference value :  2.71510e-04
 Reference value :  2.71511e-04
 Reference value :  2.71512e-04
 Reference value :  2.71514e-04
 Reference value :  2.71516e-04
 Reference value :  2.71517e-04
 Reference value :  2.71519e-04
 Reference value :  2.71523e-04
 Reference value :  2.71528e-04
 Reference value :  2.71537e-04
 Reference value :  2.71555e-04
 Reference value :  2.71590e-04
 Reference value :  2.71661e-04
 Reference value :  2.71750e-04
 Reference value :  2.71750e-04
 Reference value :  2.71750e-04
 Reference value :  2.71750e-04
 Reference value :  2.71750e-04
 Reference value :  2.71750e-04
 Reference value :  2.71750e-04
 Reference value :  2.71750e-04
 Reference value :  2.71750e-04
 Reference value :  2.71750e-04
 Reference value :  2.71750e-04
 Reference value :  2.71750e-04
 Reference value :  2.71750e-04
 Reference value :  2.71750e-04
 Reference value :  2.71751e-04
 Reference value :  2.71751e-04
 Reference value :  2.71751e-04
 Reference value :  2.71752e-04
 Reference value :  2.71753e-04
 Reference value :  2.71753e-04
 Reference value :  2.71754e-04
 Reference value :  2.71755e-04
 Reference value :  2.71757e-04
 Reference value :  2.71758e-04
 Reference value :  2.71760e-04
 Reference value :  2.71762e-04
 Reference value :  2.71764e-04
 Reference value :  2.71768e-04
 Reference value :  2.71773e-04
 Reference value :  2.71782e-04
 Reference value :  2.71796e-04
 Reference value :  2.71824e-04
 Reference value :  2.71880e-04
 Reference value :  2.71986e-04
 Reference value :  2.72000e-04
No. of Data Rows : 43480
ngspice-44 done
