
Note: Compatibility modes selected: hs a


Circuit: ** sch_path: /home/samantha/cace/sar-adc-using-sky130-pdk/runs/run_2025-08-29_13-06-20/parameters/power/run_1/power_consumption.sch

option SCALE: Scale is set to 1e-06 for instance and model parameters
option SCALE: Scale is set to 1e-06 for instance and model parameters
option SCALE: Scale is set to 1e-06 for instance and model parameters
option SCALE: Scale is set to 1e-06 for instance and model parameters
Doing analysis at TEMP = 27.000000 and TNOM = 27.000000

Using KLU as Direct Linear Solver
Operating point simulation skipped by 'uic',
  now using transient initial conditions.
 Reference value :  5.00000e-12
 Reference value :  5.14000e-12
 Reference value :  5.42000e-12
 Reference value :  5.98000e-12
 Reference value :  7.10000e-12
 Reference value :  8.68966e-12
 Reference value :  1.14545e-11
 Reference value :  2.22067e-11
 Reference value :  3.44574e-11
 Reference value :  5.89588e-11
 Reference value :  1.07962e-10
 Reference value :  1.98233e-10
 Reference value :  3.54359e-10
 Reference value :  5.00000e-10
 Reference value :  5.15228e-10
 Reference value :  5.45683e-10
 Reference value :  6.06593e-10
 Reference value :  7.28414e-10
 Reference value :  9.72055e-10
 Reference value :  1.27025e-09
 Reference value :  1.62831e-09
 Reference value :  2.15439e-09
 Reference value :  2.69463e-09
 Reference value :  3.49355e-09
 Reference value :  4.39426e-09
 Reference value :  5.53057e-09
 Reference value :  6.81170e-09
 Reference value :  7.82099e-09
 Reference value :  8.84401e-09
 Reference value :  9.87536e-09
 Reference value :  1.08311e-08
 Reference value :  1.27427e-08
 Reference value :  1.54076e-08
 Reference value :  1.92506e-08
 Reference value :  2.34684e-08
 Reference value :  2.64387e-08
 Reference value :  2.93989e-08
 Reference value :  3.17166e-08
 Reference value :  3.49100e-08
 Reference value :  4.12968e-08
 Reference value :  5.40704e-08
 Reference value :  7.96177e-08
 Reference value :  1.30712e-07
 Reference value :  1.92355e-07
 Reference value :  3.15639e-07
 Reference value :  5.00000e-07
 Reference value :  5.24657e-07
 Reference value :  5.73971e-07
 Reference value :  6.72598e-07
 Reference value :  8.69854e-07
 Reference value :  1.00050e-06
 Reference value :  1.00055e-06
 Reference value :  1.00065e-06
 Reference value :  1.00085e-06
 Reference value :  1.00100e-06
 Reference value :  1.00103e-06
 Reference value :  1.00109e-06
 Reference value :  1.00121e-06
 Reference value :  1.00139e-06
 Reference value :  1.00197e-06
 Reference value :  1.00242e-06
 Reference value :  1.00344e-06
 Reference value :  1.00415e-06
 Reference value :  1.00467e-06
 Reference value :  1.00526e-06
 Reference value :  1.00588e-06
 Reference value :  1.00669e-06
 Reference value :  1.00878e-06
 Reference value :  1.01022e-06
 Reference value :  1.01599e-06
 Reference value :  1.02232e-06
 Reference value :  1.03292e-06
 Reference value :  1.05050e-06
 Reference value :  1.08306e-06
 Reference value :  1.13717e-06
 Reference value :  1.24316e-06
 Reference value :  1.45514e-06
 Reference value :  1.87909e-06
 Reference value :  2.00000e-06
 Reference value :  2.00005e-06
 Reference value :  2.00015e-06
 Reference value :  2.00035e-06
 Reference value :  2.00050e-06
 Reference value :  2.00053e-06
 Reference value :  2.00060e-06
 Reference value :  2.00074e-06
 Reference value :  2.00102e-06
 Reference value :  2.00139e-06
 Reference value :  2.00179e-06
 Reference value :  2.00217e-06
 Reference value :  2.00261e-06
 Reference value :  2.00312e-06
 Reference value :  2.00378e-06
 Reference value :  2.00443e-06
 Reference value :  2.00512e-06
 Reference value :  2.00618e-06
 Reference value :  2.00725e-06
 Reference value :  2.00877e-06
 Reference value :  2.00996e-06
 Reference value :  2.01121e-06
 Reference value :  2.01272e-06
 Reference value :  2.01439e-06
 Reference value :  2.01598e-06
 Reference value :  2.01794e-06
 Reference value :  2.02005e-06
 Reference value :  2.02363e-06
 Reference value :  2.02944e-06
 Reference value :  2.03748e-06
 Reference value :  2.05356e-06
 Reference value :  2.08572e-06
 Reference value :  2.14679e-06
 Reference value :  2.26893e-06
 Reference value :  3.00050e-06
 Reference value :  3.00055e-06
 Reference value :  3.00065e-06
 Reference value :  3.00085e-06
 Reference value :  3.00100e-06
 Reference value :  3.00103e-06
 Reference value :  3.00110e-06
 Reference value :  3.00124e-06
 Reference value :  3.00151e-06
 Reference value :  3.00178e-06
 Reference value :  3.00219e-06
 Reference value :  3.00265e-06
 Reference value :  3.00313e-06
 Reference value :  3.00378e-06
 Reference value :  3.00430e-06
 Reference value :  3.00492e-06
 Reference value :  3.00548e-06
 Reference value :  3.00684e-06
 Reference value :  3.00846e-06
 Reference value :  3.00946e-06
 Reference value :  3.01060e-06
 Reference value :  3.01223e-06
 Reference value :  3.01433e-06
 Reference value :  3.02273e-06
 Reference value :  3.03026e-06
 Reference value :  3.04299e-06
 Reference value :  3.09396e-06
 Reference value :  3.26913e-06
 Reference value :  3.96981e-06
 Reference value :  4.00005e-06
 Reference value :  4.00035e-06
 Reference value :  4.00050e-06
 Reference value :  4.00053e-06
 Reference value :  4.00060e-06
 Reference value :  4.00074e-06
 Reference value :  4.00102e-06
 Reference value :  4.00139e-06
 Reference value :  4.00179e-06
 Reference value :  4.00221e-06
 Reference value :  4.00267e-06
 Reference value :  4.00321e-06
 Reference value :  4.00376e-06
 Reference value :  4.00429e-06
 Reference value :  4.00488e-06
 Reference value :  4.00544e-06
 Reference value :  4.00613e-06
 Reference value :  4.00678e-06
 Reference value :  4.00760e-06
 Reference value :  4.00858e-06
 Reference value :  4.00969e-06
 Reference value :  4.01077e-06
 Reference value :  4.01185e-06
 Reference value :  4.01298e-06
 Reference value :  4.01384e-06
 Reference value :  4.01467e-06
 Reference value :  4.01563e-06
 Reference value :  4.01664e-06
 Reference value :  4.01761e-06
 Reference value :  4.01878e-06
 Reference value :  4.02000e-06
 Reference value :  4.02183e-06
 Reference value :  4.02397e-06
 Reference value :  4.03679e-06
 Reference value :  4.07881e-06
 Reference value :  4.13483e-06
 Reference value :  4.19474e-06
 Reference value :  4.27374e-06
 Reference value :  4.38834e-06
 Reference value :  4.50287e-06
 Reference value :  4.79920e-06
 Reference value :  5.00055e-06
 Reference value :  5.00065e-06
 Reference value :  5.00085e-06
 Reference value :  5.00100e-06
 Reference value :  5.00103e-06
 Reference value :  5.00124e-06
 Reference value :  5.00151e-06
 Reference value :  5.00219e-06
 Reference value :  5.00266e-06
 Reference value :  5.00381e-06
 Reference value :  5.00433e-06
 Reference value :  5.00493e-06
 Reference value :  5.00548e-06
 Reference value :  5.00607e-06
 Reference value :  5.00708e-06
 Reference value :  5.00967e-06
 Reference value :  5.01528e-06
 Reference value :  5.03556e-06
 Reference value :  5.11668e-06
 Reference value :  5.44118e-06
 Reference value :  5.87384e-06
 Reference value :  6.00005e-06
 Reference value :  6.00035e-06
 Reference value :  6.00053e-06
 Reference value :  6.00074e-06
 Reference value :  6.00102e-06
 Reference value :  6.00139e-06
 Reference value :  6.00179e-06
 Reference value :  6.00217e-06
 Reference value :  6.00261e-06
 Reference value :  6.00312e-06
 Reference value :  6.00376e-06
 Reference value :  6.00442e-06
 Reference value :  6.00506e-06
 Reference value :  6.00614e-06
 Reference value :  6.00693e-06
 Reference value :  6.00781e-06
 Reference value :  6.00867e-06
 Reference value :  6.00967e-06
 Reference value :  6.01081e-06
 Reference value :  6.01432e-06
 Reference value :  6.02718e-06
 Reference value :  6.07605e-06
 Reference value :  6.13798e-06
 Reference value :  6.50259e-06
 Reference value :  6.98409e-06
 Reference value :  7.00055e-06
 Reference value :  7.00085e-06
 Reference value :  7.00100e-06
 Reference value :  7.00110e-06
 Reference value :  7.00151e-06
 Reference value :  7.00219e-06
 Reference value :  7.00265e-06
 Reference value :  7.00379e-06
 Reference value :  7.00431e-06
 Reference value :  7.00492e-06
 Reference value :  7.00547e-06
 Reference value :  7.00681e-06
 Reference value :  7.00842e-06
 Reference value :  7.01055e-06
 Reference value :  7.01425e-06
 Reference value :  7.02246e-06
 Reference value :  7.04198e-06
 Reference value :  7.09026e-06
 Reference value :  7.24330e-06
 Reference value :  7.85544e-06
 Reference value :  8.00005e-06
 Reference value :  8.00035e-06
 Reference value :  8.00053e-06
 Reference value :  8.00060e-06
 Reference value :  8.00102e-06
 Reference value :  8.00139e-06
 Reference value :  8.00179e-06
 Reference value :  8.00221e-06
 Reference value :  8.00267e-06
 Reference value :  8.00321e-06
 Reference value :  8.00429e-06
 Reference value :  8.00544e-06
 Reference value :  8.00613e-06
 Reference value :  8.00760e-06
 Reference value :  8.00858e-06
 Reference value :  8.01077e-06
 Reference value :  8.01185e-06
 Reference value :  8.01299e-06
 Reference value :  8.01384e-06
 Reference value :  8.01467e-06
 Reference value :  8.01563e-06
 Reference value :  8.01663e-06
 Reference value :  8.01878e-06
 Reference value :  8.02183e-06
 Reference value :  8.02824e-06
 Reference value :  8.05058e-06
 Reference value :  8.10933e-06
 Reference value :  8.16628e-06
 Reference value :  8.39069e-06
 Reference value :  8.47109e-06
 Reference value :  8.70830e-06
 Reference value :  9.00055e-06
 Reference value :  9.00065e-06
 Reference value :  9.00100e-06
 Reference value :  9.00103e-06
 Reference value :  9.00110e-06
 Reference value :  9.00151e-06
 Reference value :  9.00219e-06
 Reference value :  9.00266e-06
 Reference value :  9.00381e-06
 Reference value :  9.00433e-06
 Reference value :  9.00548e-06
 Reference value :  9.00607e-06
 Reference value :  9.00802e-06
 Reference value :  9.01186e-06
 Reference value :  9.02203e-06
 Reference value :  9.06253e-06
 Reference value :  9.22457e-06
 Reference value :  9.87271e-06
 Reference value :  1.00000e-05
 Reference value :  1.00003e-05
 Reference value :  1.00005e-05
 Reference value :  1.00007e-05
 Reference value :  1.00014e-05
 Reference value :  1.00022e-05
 Reference value :  1.00026e-05
 Reference value :  1.00031e-05
 Reference value :  1.00038e-05
 Reference value :  1.00051e-05
 Reference value :  1.00061e-05
 Reference value :  1.00069e-05
 Reference value :  1.00078e-05
 Reference value :  1.00087e-05
 Reference value :  1.00097e-05
 Reference value :  1.00120e-05
 Reference value :  1.00190e-05
 Reference value :  1.00437e-05
 Reference value :  1.01383e-05
 Reference value :  1.05037e-05
 Reference value :  1.10005e-05
 Reference value :  1.10006e-05
 Reference value :  1.10008e-05
 Reference value :  1.10010e-05
 Reference value :  1.10011e-05
 Reference value :  1.10012e-05
 Reference value :  1.10018e-05
 Reference value :  1.10022e-05
 Reference value :  1.10027e-05
 Reference value :  1.10031e-05
 Reference value :  1.10038e-05
 Reference value :  1.10043e-05
 Reference value :  1.10055e-05
 Reference value :  1.10068e-05
 Reference value :  1.10084e-05
 Reference value :  1.10094e-05
 Reference value :  1.10122e-05
 Reference value :  1.10173e-05
 Reference value :  1.10298e-05
 Reference value :  1.10607e-05
 Reference value :  1.11413e-05
 Reference value :  1.14473e-05
 Reference value :  1.20000e-05
 Reference value :  1.20001e-05
 Reference value :  1.20005e-05
 Reference value :  1.20005e-05
 Reference value :  1.20007e-05
 Reference value :  1.20014e-05
 Reference value :  1.20022e-05
 Reference value :  1.20027e-05
 Reference value :  1.20032e-05
 Reference value :  1.20038e-05
 Reference value :  1.20043e-05
 Reference value :  1.20049e-05
 Reference value :  1.20054e-05
 Reference value :  1.20061e-05
 Reference value :  1.20076e-05
 Reference value :  1.20097e-05
 Reference value :  1.20108e-05
 Reference value :  1.20118e-05
 Reference value :  1.20130e-05
 Reference value :  1.20138e-05
 Reference value :  1.20156e-05
 Reference value :  1.20166e-05
 Reference value :  1.20176e-05
 Reference value :  1.20188e-05
 Reference value :  1.20218e-05
 Reference value :  1.20240e-05
 Reference value :  1.20282e-05
 Reference value :  1.20504e-05
 Reference value :  1.21130e-05
 Reference value :  1.21751e-05
 Reference value :  1.22016e-05
 Reference value :  1.22279e-05
 Reference value :  1.23245e-05
 Reference value :  1.25848e-05
 Reference value :  1.30005e-05
 Reference value :  1.30006e-05
 Reference value :  1.30009e-05
 Reference value :  1.30010e-05
 Reference value :  1.30012e-05
 Reference value :  1.30018e-05
 Reference value :  1.30022e-05
 Reference value :  1.30027e-05
 Reference value :  1.30031e-05
 Reference value :  1.30038e-05
 Reference value :  1.30043e-05
 Reference value :  1.30049e-05
 Reference value :  1.30055e-05
 Reference value :  1.30061e-05
 Reference value :  1.30071e-05
 Reference value :  1.30080e-05
 Reference value :  1.30097e-05
 Reference value :  1.30119e-05
 Reference value :  1.30153e-05
 Reference value :  1.30220e-05
 Reference value :  1.30355e-05
 Reference value :  1.30625e-05
 Reference value :  1.31165e-05
 Reference value :  1.32244e-05
 Reference value :  1.38722e-05
 Reference value :  1.40000e-05
 Reference value :  1.40000e-05
 Reference value :  1.40002e-05
 Reference value :  1.40004e-05
 Reference value :  1.40005e-05
 Reference value :  1.40005e-05
 Reference value :  1.40006e-05
 Reference value :  1.40007e-05
 Reference value :  1.40010e-05
 Reference value :  1.40014e-05
 Reference value :  1.40018e-05
 Reference value :  1.40022e-05
 Reference value :  1.40026e-05
 Reference value :  1.40038e-05
 Reference value :  1.40044e-05
 Reference value :  1.40051e-05
 Reference value :  1.40061e-05
 Reference value :  1.40069e-05
 Reference value :  1.40078e-05
 Reference value :  1.40087e-05
 Reference value :  1.40097e-05
 Reference value :  1.40108e-05
 Reference value :  1.40143e-05
 Reference value :  1.40272e-05
 Reference value :  1.40762e-05
 Reference value :  1.42630e-05
 Reference value :  1.49874e-05
 Reference value :  1.50005e-05
 Reference value :  1.50009e-05
 Reference value :  1.50010e-05
 Reference value :  1.50011e-05
 Reference value :  1.50015e-05
 Reference value :  1.50022e-05
 Reference value :  1.50027e-05
 Reference value :  1.50031e-05
 Reference value :  1.50038e-05
 Reference value :  1.50043e-05
 Reference value :  1.50049e-05
 Reference value :  1.50055e-05
 Reference value :  1.50061e-05
 Reference value :  1.50068e-05
 Reference value :  1.50084e-05
 Reference value :  1.50094e-05
 Reference value :  1.50105e-05
 Reference value :  1.50142e-05
 Reference value :  1.50225e-05
 Reference value :  1.50298e-05
 Reference value :  1.50420e-05
 Reference value :  1.50903e-05
 Reference value :  1.52433e-05
 Reference value :  1.54475e-05
 Reference value :  1.60000e-05
 Reference value :  1.60000e-05
 Reference value :  1.60001e-05
 Reference value :  1.60004e-05
 Reference value :  1.60005e-05
 Reference value :  1.60007e-05
 Reference value :  1.60014e-05
 Reference value :  1.60018e-05
 Reference value :  1.60022e-05
 Reference value :  1.60032e-05
 Reference value :  1.60038e-05
 Reference value :  1.60043e-05
 Reference value :  1.60049e-05
 Reference value :  1.60054e-05
 Reference value :  1.60061e-05
 Reference value :  1.60076e-05
 Reference value :  1.60097e-05
 Reference value :  1.60108e-05
 Reference value :  1.60118e-05
 Reference value :  1.60130e-05
 Reference value :  1.60139e-05
 Reference value :  1.60147e-05
 Reference value :  1.60157e-05
 Reference value :  1.60167e-05
 Reference value :  1.60177e-05
 Reference value :  1.60189e-05
 Reference value :  1.60201e-05
 Reference value :  1.60219e-05
 Reference value :  1.60241e-05
 Reference value :  1.60372e-05
 Reference value :  1.60521e-05
 Reference value :  1.60949e-05
 Reference value :  1.61084e-05
 Reference value :  1.61436e-05
 Reference value :  1.61679e-05
 Reference value :  1.61950e-05
 Reference value :  1.62283e-05
 Reference value :  1.63863e-05
 Reference value :  1.65970e-05
 Reference value :  1.70005e-05
 Reference value :  1.70006e-05
 Reference value :  1.70009e-05
 Reference value :  1.70010e-05
 Reference value :  1.70010e-05
 Reference value :  1.70011e-05
 Reference value :  1.70012e-05
 Reference value :  1.70014e-05
 Reference value :  1.70021e-05
 Reference value :  1.70026e-05
 Reference value :  1.70031e-05
 Reference value :  1.70045e-05
 Reference value :  1.70050e-05
 Reference value :  1.70056e-05
 Reference value :  1.70062e-05
 Reference value :  1.70070e-05
 Reference value :  1.70095e-05
 Reference value :  1.70149e-05
 Reference value :  1.70323e-05
 Reference value :  1.70988e-05
 Reference value :  1.73650e-05
 Reference value :  1.80000e-05
 Reference value :  1.80001e-05
 Reference value :  1.80004e-05
 Reference value :  1.80005e-05
 Reference value :  1.80007e-05
 Reference value :  1.80010e-05
 Reference value :  1.80015e-05
 Reference value :  1.80025e-05
 Reference value :  1.80035e-05
 Reference value :  1.80042e-05
 Reference value :  1.80048e-05
 Reference value :  1.80055e-05
 Reference value :  1.80064e-05
 Reference value :  1.80071e-05
 Reference value :  1.80079e-05
 Reference value :  1.80088e-05
 Reference value :  1.80098e-05
 Reference value :  1.80118e-05
 Reference value :  1.80131e-05
 Reference value :  1.80186e-05
 Reference value :  1.80336e-05
 Reference value :  1.80797e-05
 Reference value :  1.82643e-05
 Reference value :  1.90005e-05
 Reference value :  1.90007e-05
 Reference value :  1.90010e-05
 Reference value :  1.90011e-05
 Reference value :  1.90014e-05
 Reference value :  1.90021e-05
 Reference value :  1.90031e-05
 Reference value :  1.90038e-05
 Reference value :  1.90045e-05
 Reference value :  1.90050e-05
 Reference value :  1.90056e-05
 Reference value :  1.90071e-05
 Reference value :  1.90088e-05
 Reference value :  1.90098e-05
 Reference value :  1.90127e-05
 Reference value :  1.90180e-05
 Reference value :  1.90312e-05
 Reference value :  1.90637e-05
 Reference value :  1.91485e-05
 Reference value :  1.94700e-05
 Reference value :  2.00000e-05
 Reference value :  2.00001e-05
 Reference value :  2.00002e-05
 Reference value :  2.00005e-05
 Reference value :  2.00005e-05
 Reference value :  2.00006e-05
 Reference value :  2.00010e-05
 Reference value :  2.00015e-05
 Reference value :  2.00025e-05
 Reference value :  2.00030e-05
 Reference value :  2.00035e-05
 Reference value :  2.00046e-05
 Reference value :  2.00052e-05
 Reference value :  2.00056e-05
 Reference value :  2.00068e-05
 Reference value :  2.00085e-05
 Reference value :  2.00098e-05
 Reference value :  2.00107e-05
 Reference value :  2.00117e-05
 Reference value :  2.00128e-05
 Reference value :  2.00137e-05
 Reference value :  2.00146e-05
 Reference value :  2.00157e-05
 Reference value :  2.00166e-05
 Reference value :  2.00177e-05
 Reference value :  2.00190e-05
 Reference value :  2.00222e-05
 Reference value :  2.00292e-05
 Reference value :  2.00385e-05
 Reference value :  2.00514e-05
 Reference value :  2.00577e-05
 Reference value :  2.00644e-05
 Reference value :  2.00887e-05
 Reference value :  2.01079e-05
 Reference value :  2.01431e-05
 Reference value :  2.01985e-05
 Reference value :  2.03022e-05
 Reference value :  2.06710e-05
 Reference value :  2.10005e-05
 Reference value :  2.10006e-05
 Reference value :  2.10008e-05
 Reference value :  2.10010e-05
 Reference value :  2.10010e-05
 Reference value :  2.10011e-05
 Reference value :  2.10012e-05
 Reference value :  2.10014e-05
 Reference value :  2.10017e-05
 Reference value :  2.10026e-05
 Reference value :  2.10031e-05
 Reference value :  2.10045e-05
 Reference value :  2.10050e-05
 Reference value :  2.10062e-05
 Reference value :  2.10070e-05
 Reference value :  2.10078e-05
 Reference value :  2.10095e-05
 Reference value :  2.10117e-05
 Reference value :  2.10151e-05
 Reference value :  2.10210e-05
 Reference value :  2.10328e-05
 Reference value :  2.11019e-05
 Reference value :  2.11940e-05
 Reference value :  2.17469e-05
 Reference value :  2.20000e-05
 Reference value :  2.20001e-05
 Reference value :  2.20005e-05
 Reference value :  2.20005e-05
 Reference value :  2.20006e-05
 Reference value :  2.20007e-05
 Reference value :  2.20010e-05
 Reference value :  2.20015e-05
 Reference value :  2.20020e-05
 Reference value :  2.20025e-05
 Reference value :  2.20030e-05
 Reference value :  2.20035e-05
 Reference value :  2.20042e-05
 Reference value :  2.20048e-05
 Reference value :  2.20056e-05
 Reference value :  2.20064e-05
 Reference value :  2.20071e-05
 Reference value :  2.20088e-05
 Reference value :  2.20098e-05
 Reference value :  2.20118e-05
 Reference value :  2.20154e-05
 Reference value :  2.20242e-05
 Reference value :  2.20488e-05
 Reference value :  2.20794e-05
 Reference value :  2.22632e-05
 Reference value :  2.29982e-05
 Reference value :  2.30005e-05
 Reference value :  2.30008e-05
 Reference value :  2.30010e-05
 Reference value :  2.30010e-05
 Reference value :  2.30011e-05
 Reference value :  2.30012e-05
 Reference value :  2.30014e-05
 Reference value :  2.30021e-05
 Reference value :  2.30026e-05
 Reference value :  2.30038e-05
 Reference value :  2.30045e-05
 Reference value :  2.30050e-05
 Reference value :  2.30056e-05
 Reference value :  2.30071e-05
 Reference value :  2.30088e-05
 Reference value :  2.30109e-05
 Reference value :  2.30127e-05
 Reference value :  2.30180e-05
 Reference value :  2.30311e-05
 Reference value :  2.30439e-05
 Reference value :  2.30946e-05
 Reference value :  2.31475e-05
 Reference value :  2.34652e-05
 Reference value :  2.40000e-05
 Reference value :  2.40002e-05
 Reference value :  2.40005e-05
 Reference value :  2.40005e-05
 Reference value :  2.40007e-05
 Reference value :  2.40010e-05
 Reference value :  2.40020e-05
 Reference value :  2.40025e-05
 Reference value :  2.40030e-05
 Reference value :  2.40035e-05
 Reference value :  2.40046e-05
 Reference value :  2.40052e-05
 Reference value :  2.40056e-05
 Reference value :  2.40062e-05
 Reference value :  2.40068e-05
 Reference value :  2.40076e-05
 Reference value :  2.40085e-05
 Reference value :  2.40098e-05
 Reference value :  2.40107e-05
 Reference value :  2.40128e-05
 Reference value :  2.40137e-05
 Reference value :  2.40156e-05
 Reference value :  2.40166e-05
 Reference value :  2.40177e-05
 Reference value :  2.40203e-05
 Reference value :  2.40246e-05
 Reference value :  2.40290e-05
 Reference value :  2.40325e-05
 Reference value :  2.40362e-05
 Reference value :  2.40464e-05
 Reference value :  2.40690e-05
 Reference value :  2.41227e-05
 Reference value :  2.41517e-05
 Reference value :  2.41864e-05
 Reference value :  2.42299e-05
 Reference value :  2.42571e-05
 Reference value :  2.43167e-05
 Reference value :  2.43453e-05
 Reference value :  2.45169e-05
 Reference value :  2.50005e-05
 Reference value :  2.50005e-05
 Reference value :  2.50008e-05
 Reference value :  2.50010e-05
 Reference value :  2.50010e-05
 Reference value :  2.50012e-05
 Reference value :  2.50014e-05
 Reference value :  2.50021e-05
 Reference value :  2.50026e-05
 Reference value :  2.50038e-05
 Reference value :  2.50045e-05
 Reference value :  2.50050e-05
 Reference value :  2.50063e-05
 Reference value :  2.50070e-05
 Reference value :  2.50095e-05
 Reference value :  2.50151e-05
 Reference value :  2.50212e-05
 Reference value :  2.50566e-05
 Reference value :  2.51033e-05
 Reference value :  2.53836e-05
 Reference value :  2.57574e-05
 Reference value :  2.60001e-05
 Reference value :  2.60002e-05
 Reference value :  2.60005e-05
 Reference value :  2.60005e-05
 Reference value :  2.60007e-05
 Reference value :  2.60015e-05
 Reference value :  2.60025e-05
 Reference value :  2.60030e-05
 Reference value :  2.60035e-05
 Reference value :  2.60047e-05
 Reference value :  2.60053e-05
 Reference value :  2.60062e-05
 Reference value :  2.60068e-05
 Reference value :  2.60076e-05
 Reference value :  2.60086e-05
 Reference value :  2.60104e-05
 Reference value :  2.60115e-05
 Reference value :  2.60151e-05
 Reference value :  2.60267e-05
 Reference value :  2.60689e-05
 Reference value :  2.62325e-05
 Reference value :  2.68870e-05
 Reference value :  2.70006e-05
 Reference value :  2.70009e-05
 Reference value :  2.70010e-05
 Reference value :  2.70010e-05
 Reference value :  2.70012e-05
 Reference value :  2.70014e-05
 Reference value :  2.70021e-05
 Reference value :  2.70031e-05
 Reference value :  2.70045e-05
 Reference value :  2.70050e-05
 Reference value :  2.70056e-05
 Reference value :  2.70071e-05
 Reference value :  2.70095e-05
 Reference value :  2.70152e-05
 Reference value :  2.70336e-05
 Reference value :  2.71019e-05
 Reference value :  2.71924e-05
 Reference value :  2.73734e-05
 Reference value :  2.80000e-05
 Reference value :  2.80000e-05
 Reference value :  2.80004e-05
 Reference value :  2.80005e-05
 Reference value :  2.80007e-05
 Reference value :  2.80010e-05
 Reference value :  2.80015e-05
 Reference value :  2.80025e-05
 Reference value :  2.80030e-05
 Reference value :  2.80035e-05
 Reference value :  2.80041e-05
 Reference value :  2.80046e-05
 Reference value :  2.80056e-05
 Reference value :  2.80069e-05
 Reference value :  2.80090e-05
 Reference value :  2.80106e-05
 Reference value :  2.80120e-05
 Reference value :  2.80135e-05
 Reference value :  2.80146e-05
 Reference value :  2.80155e-05
 Reference value :  2.80165e-05
 Reference value :  2.80176e-05
 Reference value :  2.80190e-05
 Reference value :  2.80203e-05
 Reference value :  2.80247e-05
 Reference value :  2.80294e-05
 Reference value :  2.80364e-05
 Reference value :  2.80663e-05
 Reference value :  2.81509e-05
 Reference value :  2.84546e-05
 Reference value :  2.90005e-05
 Reference value :  2.90006e-05
 Reference value :  2.90009e-05
 Reference value :  2.90010e-05
 Reference value :  2.90010e-05
 Reference value :  2.90011e-05
 Reference value :  2.90014e-05
 Reference value :  2.90021e-05
 Reference value :  2.90026e-05
 Reference value :  2.90031e-05
 Reference value :  2.90038e-05
 Reference value :  2.90045e-05
 Reference value :  2.90050e-05
 Reference value :  2.90057e-05
 Reference value :  2.90063e-05
 Reference value :  2.90071e-05
 Reference value :  2.90096e-05
 Reference value :  2.90152e-05
 Reference value :  2.90336e-05
 Reference value :  2.91040e-05
 Reference value :  2.93856e-05
 Reference value :  3.00000e-05
 Reference value :  3.00002e-05
 Reference value :  3.00005e-05
 Reference value :  3.00005e-05
 Reference value :  3.00007e-05
 Reference value :  3.00015e-05
 Reference value :  3.00020e-05
 Reference value :  3.00025e-05
 Reference value :  3.00035e-05
 Reference value :  3.00041e-05
 Reference value :  3.00047e-05
 Reference value :  3.00053e-05
 Reference value :  3.00062e-05
 Reference value :  3.00068e-05
 Reference value :  3.00076e-05
 Reference value :  3.00086e-05
 Reference value :  3.00095e-05
 Reference value :  3.00104e-05
 Reference value :  3.00115e-05
 Reference value :  3.00151e-05
 Reference value :  3.00267e-05
 Reference value :  3.00687e-05
 Reference value :  3.02316e-05
 Reference value :  3.08832e-05
 Reference value :  3.10005e-05
 Reference value :  3.10006e-05
 Reference value :  3.10008e-05
 Reference value :  3.10010e-05
 Reference value :  3.10010e-05
 Reference value :  3.10012e-05
 Reference value :  3.10014e-05
 Reference value :  3.10017e-05
 Reference value :  3.10021e-05
 Reference value :  3.10026e-05
 Reference value :  3.10031e-05
 Reference value :  3.10038e-05
 Reference value :  3.10045e-05
 Reference value :  3.10050e-05
 Reference value :  3.10056e-05
 Reference value :  3.10071e-05
 Reference value :  3.10095e-05
 Reference value :  3.10152e-05
 Reference value :  3.10336e-05
 Reference value :  3.11018e-05
 Reference value :  3.11925e-05
 Reference value :  3.17363e-05
 Reference value :  3.20000e-05
 Reference value :  3.20000e-05
 Reference value :  3.20001e-05
 Reference value :  3.20003e-05
 Reference value :  3.20005e-05
 Reference value :  3.20006e-05
 Reference value :  3.20010e-05
 Reference value :  3.20015e-05
 Reference value :  3.20020e-05
 Reference value :  3.20025e-05
 Reference value :  3.20030e-05
 Reference value :  3.20035e-05
 Reference value :  3.20041e-05
 Reference value :  3.20046e-05
 Reference value :  3.20052e-05
 Reference value :  3.20056e-05
 Reference value :  3.20069e-05
 Reference value :  3.20076e-05
 Reference value :  3.20083e-05
 Reference value :  3.20101e-05
 Reference value :  3.20111e-05
 Reference value :  3.20173e-05
 Reference value :  3.20397e-05
 Reference value :  3.21280e-05
 Reference value :  3.24790e-05
 Reference value :  3.29469e-05
 Reference value :  3.30005e-05
 Reference value :  3.30006e-05
 Reference value :  3.30007e-05
 Reference value :  3.30009e-05
 Reference value :  3.30010e-05
 Reference value :  3.30010e-05
 Reference value :  3.30011e-05
 Reference value :  3.30012e-05
 Reference value :  3.30015e-05
 Reference value :  3.30017e-05
 Reference value :  3.30022e-05
 Reference value :  3.30027e-05
 Reference value :  3.30032e-05
 Reference value :  3.30039e-05
 Reference value :  3.30046e-05
 Reference value :  3.30065e-05
 Reference value :  3.30075e-05
 Reference value :  3.30090e-05
 Reference value :  3.30134e-05
 Reference value :  3.30263e-05
 Reference value :  3.30780e-05
 Reference value :  3.32844e-05
 Reference value :  3.40000e-05
No. of Data Rows : 1230
ngspice-44 done
