
Note: Compatibility modes selected: hs a


Circuit: ** sch_path: /home/issa/cace/sar-adc-using-sky130-pdk/runs/run_2025-09-20_12-37-38/parameters/sampling_rate/run_03/sampling_rate.sch

option SCALE: Scale is set to 1e-06 for instance and model parameters
option SCALE: Scale is set to 1e-06 for instance and model parameters
option SCALE: Scale is set to 1e-06 for instance and model parameters
option SCALE: Scale is set to 1e-06 for instance and model parameters
Doing analysis at TEMP = 27.000000 and TNOM = 27.000000

Using KLU as Direct Linear Solver
Operating point simulation skipped by 'uic',
  now using transient initial conditions.
 Reference value :  1.00000e-12
 Reference value :  1.02800e-12
 Reference value :  1.19600e-12
 Reference value :  2.32495e-12
 Reference value :  6.45144e-12
 Reference value :  1.38143e-11
 Reference value :  5.62796e-11
 Reference value :  1.04853e-10
 Reference value :  1.72798e-10
 Reference value :  6.62468e-10
 Reference value :  9.67718e-10
 Reference value :  1.37939e-09
 Reference value :  2.49955e-09
 Reference value :  4.20981e-09
 Reference value :  5.05724e-09
 Reference value :  5.96473e-09
 Reference value :  7.09393e-09
 Reference value :  9.06777e-09
 Reference value :  9.93181e-09
 Reference value :  1.08030e-08
 Reference value :  1.30955e-08
 Reference value :  1.61727e-08
 Reference value :  1.73110e-08
 Reference value :  1.92968e-08
 Reference value :  2.39681e-08
 Reference value :  3.14589e-08
 Reference value :  4.11698e-08
 Reference value :  5.81826e-08
 Reference value :  6.91279e-08
 Reference value :  9.10185e-08
 Reference value :  1.19740e-07
 Reference value :  1.32922e-07
 Reference value :  1.40308e-07
 Reference value :  1.57772e-07
 Reference value :  2.03857e-07
 Reference value :  2.50110e-07
 Reference value :  2.50170e-07
 Reference value :  2.50208e-07
 Reference value :  2.50223e-07
 Reference value :  2.50253e-07
 Reference value :  2.50308e-07
 Reference value :  2.50511e-07
 Reference value :  2.50910e-07
 Reference value :  2.51621e-07
 Reference value :  2.52657e-07
 Reference value :  2.53899e-07
 Reference value :  2.54522e-07
 Reference value :  2.55750e-07
 Reference value :  2.57585e-07
 Reference value :  2.60628e-07
 Reference value :  2.68805e-07
 Reference value :  3.41116e-07
 Reference value :  5.00000e-07
 Reference value :  5.00070e-07
 Reference value :  5.00108e-07
 Reference value :  5.00156e-07
 Reference value :  5.00337e-07
 Reference value :  5.00826e-07
 Reference value :  5.01286e-07
 Reference value :  5.01762e-07
 Reference value :  5.02180e-07
 Reference value :  5.03310e-07
 Reference value :  5.03934e-07
 Reference value :  5.05647e-07
 Reference value :  5.07963e-07
 Reference value :  5.10665e-07
 Reference value :  5.13722e-07
 Reference value :  5.15241e-07
 Reference value :  5.19444e-07
 Reference value :  5.31630e-07
 Reference value :  5.80333e-07
 Reference value :  7.50100e-07
 Reference value :  7.50130e-07
 Reference value :  7.50208e-07
 Reference value :  7.50318e-07
 Reference value :  7.50948e-07
 Reference value :  7.51856e-07
 Reference value :  7.53027e-07
 Reference value :  7.54419e-07
 Reference value :  7.55799e-07
 Reference value :  7.56749e-07
 Reference value :  7.58440e-07
 Reference value :  7.62182e-07
 Reference value :  7.75476e-07
 Reference value :  8.13377e-07
 Reference value :  1.00000e-06
 Reference value :  1.00003e-06
 Reference value :  1.00010e-06
 Reference value :  1.00016e-06
 Reference value :  1.00034e-06
 Reference value :  1.00128e-06
 Reference value :  1.00219e-06
 Reference value :  1.00329e-06
 Reference value :  1.00442e-06
 Reference value :  1.00557e-06
 Reference value :  1.00609e-06
 Reference value :  1.00755e-06
 Reference value :  1.00973e-06
 Reference value :  1.01069e-06
 Reference value :  1.01172e-06
 Reference value :  1.01368e-06
 Reference value :  1.01547e-06
 Reference value :  1.01646e-06
 Reference value :  1.01854e-06
 Reference value :  1.02132e-06
 Reference value :  1.02666e-06
 Reference value :  1.04098e-06
 Reference value :  1.13267e-06
 Reference value :  1.25011e-06
 Reference value :  1.25020e-06
 Reference value :  1.25026e-06
 Reference value :  1.25044e-06
 Reference value :  1.25095e-06
 Reference value :  1.25138e-06
 Reference value :  1.25236e-06
 Reference value :  1.25376e-06
 Reference value :  1.25438e-06
 Reference value :  1.25570e-06
 Reference value :  1.25764e-06
 Reference value :  1.26148e-06
 Reference value :  1.27277e-06
 Reference value :  1.28467e-06
 Reference value :  1.33667e-06
 Reference value :  1.40167e-06
 Reference value :  1.50000e-06
 Reference value :  1.50003e-06
 Reference value :  1.50007e-06
 Reference value :  1.50011e-06
 Reference value :  1.50016e-06
 Reference value :  1.50034e-06
 Reference value :  1.50129e-06
 Reference value :  1.50218e-06
 Reference value :  1.50332e-06
 Reference value :  1.50395e-06
 Reference value :  1.50473e-06
 Reference value :  1.50553e-06
 Reference value :  1.50657e-06
 Reference value :  1.50734e-06
 Reference value :  1.50903e-06
 Reference value :  1.51120e-06
 Reference value :  1.51961e-06
 Reference value :  1.54747e-06
 Reference value :  1.65893e-06
 Reference value :  1.75013e-06
 Reference value :  1.75020e-06
 Reference value :  1.75026e-06
 Reference value :  1.75068e-06
 Reference value :  1.75138e-06
 Reference value :  1.75236e-06
 Reference value :  1.75302e-06
 Reference value :  1.75440e-06
 Reference value :  1.75577e-06
 Reference value :  1.75672e-06
 Reference value :  1.75759e-06
 Reference value :  1.75844e-06
 Reference value :  1.76077e-06
 Reference value :  1.76491e-06
 Reference value :  1.76840e-06
 Reference value :  1.77537e-06
 Reference value :  1.80903e-06
 Reference value :  1.93274e-06
 Reference value :  2.00001e-06
 Reference value :  2.00003e-06
 Reference value :  2.00010e-06
 Reference value :  2.00012e-06
 Reference value :  2.00022e-06
 Reference value :  2.00034e-06
 Reference value :  2.00050e-06
 Reference value :  2.00083e-06
 Reference value :  2.00128e-06
 Reference value :  2.00176e-06
 Reference value :  2.00219e-06
 Reference value :  2.00329e-06
 Reference value :  2.00391e-06
 Reference value :  2.00441e-06
 Reference value :  2.00499e-06
 Reference value :  2.00556e-06
 Reference value :  2.00609e-06
 Reference value :  2.00670e-06
 Reference value :  2.00756e-06
 Reference value :  2.00843e-06
 Reference value :  2.01071e-06
 Reference value :  2.01284e-06
 Reference value :  2.01369e-06
 Reference value :  2.01547e-06
 Reference value :  2.01746e-06
 Reference value :  2.01963e-06
 Reference value :  2.02129e-06
 Reference value :  2.02660e-06
 Reference value :  2.03199e-06
 Reference value :  2.05646e-06
 Reference value :  2.07450e-06
 Reference value :  2.10585e-06
 Reference value :  2.11181e-06
 Reference value :  2.11812e-06
 Reference value :  2.12394e-06
 Reference value :  2.12988e-06
 Reference value :  2.14842e-06
 Reference value :  2.19623e-06
 Reference value :  2.24757e-06
 Reference value :  2.25010e-06
 Reference value :  2.25011e-06
 Reference value :  2.25013e-06
 Reference value :  2.25017e-06
 Reference value :  2.25020e-06
 Reference value :  2.25022e-06
 Reference value :  2.25026e-06
 Reference value :  2.25032e-06
 Reference value :  2.25045e-06
 Reference value :  2.25069e-06
 Reference value :  2.25138e-06
 Reference value :  2.25185e-06
 Reference value :  2.25236e-06
 Reference value :  2.25302e-06
 Reference value :  2.25378e-06
 Reference value :  2.25439e-06
 Reference value :  2.25504e-06
 Reference value :  2.25571e-06
 Reference value :  2.25667e-06
 Reference value :  2.25761e-06
 Reference value :  2.25918e-06
 Reference value :  2.26143e-06
 Reference value :  2.27276e-06
 Reference value :  2.28465e-06
 Reference value :  2.34389e-06
 Reference value :  2.50000e-06
 Reference value :  2.50003e-06
 Reference value :  2.50007e-06
 Reference value :  2.50010e-06
 Reference value :  2.50011e-06
 Reference value :  2.50012e-06
 Reference value :  2.50016e-06
 Reference value :  2.50022e-06
 Reference value :  2.50034e-06
 Reference value :  2.50050e-06
 Reference value :  2.50083e-06
 Reference value :  2.50128e-06
 Reference value :  2.50176e-06
 Reference value :  2.50219e-06
 Reference value :  2.50323e-06
 Reference value :  2.50382e-06
 Reference value :  2.50442e-06
 Reference value :  2.50508e-06
 Reference value :  2.50616e-06
 Reference value :  2.50719e-06
 Reference value :  2.50818e-06
 Reference value :  2.50930e-06
 Reference value :  2.51036e-06
 Reference value :  2.51158e-06
 Reference value :  2.51551e-06
 Reference value :  2.52038e-06
 Reference value :  2.52856e-06
 Reference value :  2.57759e-06
 Reference value :  2.75010e-06
 Reference value :  2.75011e-06
 Reference value :  2.75017e-06
 Reference value :  2.75020e-06
 Reference value :  2.75021e-06
 Reference value :  2.75022e-06
 Reference value :  2.75032e-06
 Reference value :  2.75044e-06
 Reference value :  2.75094e-06
 Reference value :  2.75138e-06
 Reference value :  2.75185e-06
 Reference value :  2.75235e-06
 Reference value :  2.75302e-06
 Reference value :  2.75377e-06
 Reference value :  2.75440e-06
 Reference value :  2.75506e-06
 Reference value :  2.75577e-06
 Reference value :  2.75672e-06
 Reference value :  2.75759e-06
 Reference value :  2.75926e-06
 Reference value :  2.76144e-06
 Reference value :  2.76559e-06
 Reference value :  2.78452e-06
 Reference value :  2.84283e-06
 Reference value :  2.91071e-06
 Reference value :  3.00000e-06
 Reference value :  3.00001e-06
 Reference value :  3.00003e-06
 Reference value :  3.00007e-06
 Reference value :  3.00011e-06
 Reference value :  3.00012e-06
 Reference value :  3.00022e-06
 Reference value :  3.00050e-06
 Reference value :  3.00128e-06
 Reference value :  3.00176e-06
 Reference value :  3.00219e-06
 Reference value :  3.00268e-06
 Reference value :  3.00329e-06
 Reference value :  3.00391e-06
 Reference value :  3.00441e-06
 Reference value :  3.00498e-06
 Reference value :  3.00557e-06
 Reference value :  3.00609e-06
 Reference value :  3.00757e-06
 Reference value :  3.00999e-06
 Reference value :  3.01280e-06
 Reference value :  3.01389e-06
 Reference value :  3.01493e-06
 Reference value :  3.01707e-06
 Reference value :  3.01938e-06
 Reference value :  3.02610e-06
 Reference value :  3.05225e-06
 Reference value :  3.07175e-06
 Reference value :  3.08610e-06
 Reference value :  3.10012e-06
 Reference value :  3.13799e-06
 Reference value :  3.25010e-06
 Reference value :  3.25017e-06
 Reference value :  3.25022e-06
 Reference value :  3.25044e-06
 Reference value :  3.25068e-06
 Reference value :  3.25138e-06
 Reference value :  3.25236e-06
 Reference value :  3.25302e-06
 Reference value :  3.25440e-06
 Reference value :  3.25675e-06
 Reference value :  3.26185e-06
 Reference value :  3.28508e-06
 Reference value :  3.40657e-06
 Reference value :  3.50003e-06
 Reference value :  3.50011e-06
 Reference value :  3.50022e-06
 Reference value :  3.50083e-06
 Reference value :  3.50129e-06
 Reference value :  3.50218e-06
 Reference value :  3.50332e-06
 Reference value :  3.50473e-06
 Reference value :  3.50657e-06
 Reference value :  3.50734e-06
 Reference value :  3.50903e-06
 Reference value :  3.51119e-06
 Reference value :  3.51958e-06
 Reference value :  3.65947e-06
 Reference value :  3.75013e-06
 Reference value :  3.75020e-06
 Reference value :  3.75026e-06
 Reference value :  3.75068e-06
 Reference value :  3.75138e-06
 Reference value :  3.75235e-06
 Reference value :  3.75376e-06
 Reference value :  3.75439e-06
 Reference value :  3.75576e-06
 Reference value :  3.75758e-06
 Reference value :  3.75842e-06
 Reference value :  3.76214e-06
 Reference value :  3.77525e-06
 Reference value :  3.84898e-06
 Reference value :  4.00001e-06
 Reference value :  4.00010e-06
 Reference value :  4.00016e-06
 Reference value :  4.00050e-06
 Reference value :  4.00128e-06
 Reference value :  4.00219e-06
 Reference value :  4.00329e-06
 Reference value :  4.00441e-06
 Reference value :  4.00556e-06
 Reference value :  4.00609e-06
 Reference value :  4.00843e-06
 Reference value :  4.01071e-06
 Reference value :  4.01174e-06
 Reference value :  4.01285e-06
 Reference value :  4.01450e-06
 Reference value :  4.01644e-06
 Reference value :  4.01852e-06
 Reference value :  4.02127e-06
 Reference value :  4.03054e-06
 Reference value :  4.03920e-06
 Reference value :  4.04186e-06
 Reference value :  4.04625e-06
 Reference value :  4.05544e-06
 Reference value :  4.07773e-06
 Reference value :  4.12037e-06
 Reference value :  4.25010e-06
 Reference value :  4.25017e-06
 Reference value :  4.25022e-06
 Reference value :  4.25045e-06
 Reference value :  4.25095e-06
 Reference value :  4.25138e-06
 Reference value :  4.25236e-06
 Reference value :  4.25378e-06
 Reference value :  4.25438e-06
 Reference value :  4.25570e-06
 Reference value :  4.25759e-06
 Reference value :  4.26546e-06
 Reference value :  4.30570e-06
 Reference value :  4.50000e-06
 Reference value :  4.50007e-06
 Reference value :  4.50012e-06
 Reference value :  4.50034e-06
 Reference value :  4.50128e-06
 Reference value :  4.50219e-06
 Reference value :  4.50323e-06
 Reference value :  4.50442e-06
 Reference value :  4.50616e-06
 Reference value :  4.50818e-06
 Reference value :  4.50930e-06
 Reference value :  4.51158e-06
 Reference value :  4.52037e-06
 Reference value :  4.57744e-06
 Reference value :  4.75011e-06
 Reference value :  4.75013e-06
 Reference value :  4.75020e-06
 Reference value :  4.75022e-06
 Reference value :  4.75032e-06
 Reference value :  4.75044e-06
 Reference value :  4.75068e-06
 Reference value :  4.75094e-06
 Reference value :  4.75138e-06
 Reference value :  4.75185e-06
 Reference value :  4.75235e-06
 Reference value :  4.75302e-06
 Reference value :  4.75377e-06
 Reference value :  4.75439e-06
 Reference value :  4.75577e-06
 Reference value :  4.75671e-06
 Reference value :  4.75924e-06
 Reference value :  4.77264e-06
 Reference value :  4.84101e-06
 Reference value :  5.00001e-06
 Reference value :  5.00010e-06
 Reference value :  5.00016e-06
 Reference value :  5.00034e-06
 Reference value :  5.00083e-06
 Reference value :  5.00128e-06
 Reference value :  5.00219e-06
 Reference value :  5.00329e-06
 Reference value :  5.00391e-06
 Reference value :  5.00440e-06
 Reference value :  5.00557e-06
 Reference value :  5.00609e-06
 Reference value :  5.00757e-06
 Reference value :  5.00999e-06
 Reference value :  5.01280e-06
 Reference value :  5.01492e-06
 Reference value :  5.01710e-06
 Reference value :  5.01941e-06
 Reference value :  5.02616e-06
 Reference value :  5.03729e-06
 Reference value :  5.05193e-06
 Reference value :  5.06054e-06
 Reference value :  5.07221e-06
 Reference value :  5.07837e-06
 Reference value :  5.09962e-06
 Reference value :  5.15668e-06
 Reference value :  5.25011e-06
 Reference value :  5.25017e-06
 Reference value :  5.25021e-06
 Reference value :  5.25022e-06
 Reference value :  5.25032e-06
 Reference value :  5.25069e-06
 Reference value :  5.25138e-06
 Reference value :  5.25236e-06
 Reference value :  5.25373e-06
 Reference value :  5.25509e-06
 Reference value :  5.25675e-06
 Reference value :  5.25940e-06
 Reference value :  5.28477e-06
 Reference value :  5.40270e-06
 Reference value :  5.50003e-06
 Reference value :  5.50011e-06
 Reference value :  5.50016e-06
 Reference value :  5.50050e-06
 Reference value :  5.50129e-06
 Reference value :  5.50218e-06
 Reference value :  5.50395e-06
 Reference value :  5.50554e-06
 Reference value :  5.50734e-06
 Reference value :  5.50903e-06
 Reference value :  5.51119e-06
 Reference value :  5.51485e-06
 Reference value :  5.54758e-06
 Reference value :  5.75010e-06
 Reference value :  5.75013e-06
 Reference value :  5.75021e-06
 Reference value :  5.75032e-06
 Reference value :  5.75094e-06
 Reference value :  5.75138e-06
 Reference value :  5.75235e-06
 Reference value :  5.75376e-06
 Reference value :  5.75439e-06
 Reference value :  5.75576e-06
 Reference value :  5.75757e-06
 Reference value :  5.75933e-06
 Reference value :  5.76484e-06
 Reference value :  5.78736e-06
 Reference value :  5.92505e-06
 Reference value :  6.00003e-06
 Reference value :  6.00011e-06
 Reference value :  6.00022e-06
 Reference value :  6.00050e-06
 Reference value :  6.00128e-06
 Reference value :  6.00219e-06
 Reference value :  6.00329e-06
 Reference value :  6.00441e-06
 Reference value :  6.00556e-06
 Reference value :  6.00609e-06
 Reference value :  6.00756e-06
 Reference value :  6.00973e-06
 Reference value :  6.01071e-06
 Reference value :  6.01285e-06
 Reference value :  6.01368e-06
 Reference value :  6.01554e-06
 Reference value :  6.01756e-06
 Reference value :  6.01993e-06
 Reference value :  6.02367e-06
 Reference value :  6.03291e-06
 Reference value :  6.04281e-06
 Reference value :  6.04688e-06
 Reference value :  6.06414e-06
 Reference value :  6.07966e-06
 Reference value :  6.14758e-06
 Reference value :  6.25011e-06
 Reference value :  6.25020e-06
 Reference value :  6.25026e-06
 Reference value :  6.25068e-06
 Reference value :  6.25138e-06
 Reference value :  6.25235e-06
 Reference value :  6.25378e-06
 Reference value :  6.25503e-06
 Reference value :  6.25665e-06
 Reference value :  6.25915e-06
 Reference value :  6.28400e-06
 Reference value :  6.40774e-06
 Reference value :  6.50003e-06
 Reference value :  6.50011e-06
 Reference value :  6.50016e-06
 Reference value :  6.50050e-06
 Reference value :  6.50128e-06
 Reference value :  6.50219e-06
 Reference value :  6.50323e-06
 Reference value :  6.50442e-06
 Reference value :  6.50616e-06
 Reference value :  6.50818e-06
 Reference value :  6.51036e-06
 Reference value :  6.51289e-06
 Reference value :  6.52852e-06
 Reference value :  6.64259e-06
 Reference value :  6.75013e-06
 Reference value :  6.75021e-06
 Reference value :  6.75032e-06
 Reference value :  6.75068e-06
 Reference value :  6.75138e-06
 Reference value :  6.75302e-06
 Reference value :  6.75439e-06
 Reference value :  6.75576e-06
 Reference value :  6.75923e-06
 Reference value :  6.77255e-06
 Reference value :  6.83997e-06
 Reference value :  7.00001e-06
 Reference value :  7.00010e-06
 Reference value :  7.00016e-06
 Reference value :  7.00050e-06
 Reference value :  7.00128e-06
 Reference value :  7.00219e-06
 Reference value :  7.00329e-06
 Reference value :  7.00391e-06
 Reference value :  7.00440e-06
 Reference value :  7.00557e-06
 Reference value :  7.00671e-06
 Reference value :  7.00844e-06
 Reference value :  7.01143e-06
 Reference value :  7.01280e-06
 Reference value :  7.01388e-06
 Reference value :  7.01602e-06
 Reference value :  7.01706e-06
 Reference value :  7.01937e-06
 Reference value :  7.02609e-06
 Reference value :  7.05045e-06
 Reference value :  7.11286e-06
 Reference value :  7.16266e-06
 Reference value :  7.21166e-06
 Reference value :  7.25010e-06
 Reference value :  7.25017e-06
 Reference value :  7.25022e-06
 Reference value :  7.25032e-06
 Reference value :  7.25069e-06
 Reference value :  7.25138e-06
 Reference value :  7.25302e-06
 Reference value :  7.25440e-06
 Reference value :  7.25577e-06
 Reference value :  7.25939e-06
 Reference value :  7.27287e-06
 Reference value :  7.33842e-06
 Reference value :  7.50001e-06
 Reference value :  7.50010e-06
 Reference value :  7.50016e-06
 Reference value :  7.50034e-06
 Reference value :  7.50083e-06
 Reference value :  7.50176e-06
 Reference value :  7.50265e-06
 Reference value :  7.50395e-06
 Reference value :  7.50554e-06
 Reference value :  7.50657e-06
 Reference value :  7.50734e-06
 Reference value :  7.50903e-06
 Reference value :  7.51119e-06
 Reference value :  7.52890e-06
 Reference value :  7.75010e-06
 Reference value :  7.75013e-06
 Reference value :  7.75021e-06
 Reference value :  7.75032e-06
 Reference value :  7.75094e-06
 Reference value :  7.75185e-06
 Reference value :  7.75302e-06
 Reference value :  7.75438e-06
 Reference value :  7.75669e-06
 Reference value :  7.75842e-06
 Reference value :  7.76073e-06
 Reference value :  7.76828e-06
 Reference value :  7.84758e-06
 Reference value :  8.00001e-06
 Reference value :  8.00010e-06
 Reference value :  8.00012e-06
 Reference value :  8.00022e-06
 Reference value :  8.00050e-06
 Reference value :  8.00128e-06
 Reference value :  8.00219e-06
 Reference value :  8.00329e-06
 Reference value :  8.00441e-06
 Reference value :  8.00556e-06
 Reference value :  8.00670e-06
 Reference value :  8.00756e-06
 Reference value :  8.00927e-06
 Reference value :  8.00997e-06
 Reference value :  8.01180e-06
 Reference value :  8.01482e-06
 Reference value :  8.01773e-06
 Reference value :  8.02819e-06
 Reference value :  8.04069e-06
 Reference value :  8.04530e-06
 Reference value :  8.05547e-06
 Reference value :  8.07058e-06
 Reference value :  8.08983e-06
 Reference value :  8.17977e-06
 Reference value :  8.25011e-06
 Reference value :  8.25013e-06
 Reference value :  8.25020e-06
 Reference value :  8.25022e-06
 Reference value :  8.25045e-06
 Reference value :  8.25095e-06
 Reference value :  8.25139e-06
 Reference value :  8.25237e-06
 Reference value :  8.25387e-06
 Reference value :  8.25565e-06
 Reference value :  8.25925e-06
 Reference value :  8.27124e-06
 Reference value :  8.32552e-06
 Reference value :  8.50001e-06
 Reference value :  8.50010e-06
 Reference value :  8.50016e-06
 Reference value :  8.50060e-06
 Reference value :  8.50154e-06
 Reference value :  8.50262e-06
 Reference value :  8.50382e-06
 Reference value :  8.50534e-06
 Reference value :  8.50600e-06
 Reference value :  8.50768e-06
 Reference value :  8.51071e-06
 Reference value :  8.51894e-06
 Reference value :  8.52429e-06
 Reference value :  8.52843e-06
 Reference value :  8.53147e-06
 Reference value :  8.53675e-06
 Reference value :  8.53817e-06
 Reference value :  8.54134e-06
 Reference value :  8.54463e-06
 Reference value :  8.55299e-06
 Reference value :  8.56093e-06
 Reference value :  8.57381e-06
 Reference value :  8.58235e-06
 Reference value :  8.60732e-06
 Reference value :  8.62869e-06
 Reference value :  8.65863e-06
 Reference value :  8.68608e-06
 Reference value :  8.71658e-06
 Reference value :  8.72624e-06
 Reference value :  8.73755e-06
 Reference value :  8.75010e-06
 Reference value :  8.75017e-06
 Reference value :  8.75022e-06
 Reference value :  8.75044e-06
 Reference value :  8.75094e-06
 Reference value :  8.75185e-06
 Reference value :  8.75373e-06
 Reference value :  8.75508e-06
 Reference value :  8.75674e-06
 Reference value :  8.76186e-06
 Reference value :  8.77290e-06
 Reference value :  8.83838e-06
 Reference value :  9.00000e-06
No. of Data Rows : 1351
ngspice-44 done
