
Note: Compatibility modes selected: hs a


Circuit: ** sch_path: /home/samantha/cace/sar-adc-using-sky130-pdk/runs/run_2025-09-03_21-11-33/parameters/sampling_rate/run_8/sampling_rate.sch

option SCALE: Scale is set to 1e-06 for instance and model parameters
option SCALE: Scale is set to 1e-06 for instance and model parameters
option SCALE: Scale is set to 1e-06 for instance and model parameters
option SCALE: Scale is set to 1e-06 for instance and model parameters
Doing analysis at TEMP = 27.000000 and TNOM = 27.000000

Using KLU as Direct Linear Solver
Operating point simulation skipped by 'uic',
  now using transient initial conditions.
 Reference value :  1.00000e-12
 Reference value :  1.02630e-12
 Reference value :  1.07891e-12
 Reference value :  1.18413e-12
 Reference value :  1.64045e-12
 Reference value :  2.93182e-12
 Reference value :  3.98276e-12
 Reference value :  5.73813e-12
 Reference value :  1.31821e-11
 Reference value :  2.85483e-11
 Reference value :  4.90365e-11
 Reference value :  9.00130e-11
 Reference value :  1.00000e-10
 Reference value :  1.05571e-10
 Reference value :  1.16713e-10
 Reference value :  1.38997e-10
 Reference value :  1.83564e-10
 Reference value :  2.72699e-10
 Reference value :  4.50969e-10
 Reference value :  7.12776e-10
 Reference value :  1.04852e-09
 Reference value :  1.47746e-09
 Reference value :  2.09112e-09
 Reference value :  2.67145e-09
 Reference value :  3.59380e-09
 Reference value :  4.54709e-09
 Reference value :  5.53750e-09
 Reference value :  6.69140e-09
 Reference value :  8.02711e-09
 Reference value :  8.89889e-09
 Reference value :  9.70273e-09
 Reference value :  1.03633e-08
 Reference value :  1.10303e-08
 Reference value :  1.18881e-08
 Reference value :  1.40777e-08
 Reference value :  2.00214e-08
 Reference value :  2.41555e-08
 Reference value :  2.79946e-08
 Reference value :  3.14118e-08
 Reference value :  3.52605e-08
 Reference value :  4.40697e-08
 Reference value :  5.97417e-08
 Reference value :  7.45839e-08
 Reference value :  1.04268e-07
 Reference value :  1.55859e-07
 Reference value :  2.50100e-07
 Reference value :  2.50110e-07
 Reference value :  2.50130e-07
 Reference value :  2.50170e-07
 Reference value :  2.50200e-07
 Reference value :  2.50207e-07
 Reference value :  2.50222e-07
 Reference value :  2.50252e-07
 Reference value :  2.50312e-07
 Reference value :  2.50541e-07
 Reference value :  2.50746e-07
 Reference value :  2.50990e-07
 Reference value :  2.51445e-07
 Reference value :  2.51959e-07
 Reference value :  2.52432e-07
 Reference value :  2.53140e-07
 Reference value :  2.53981e-07
 Reference value :  2.54567e-07
 Reference value :  2.55249e-07
 Reference value :  2.56005e-07
 Reference value :  2.57815e-07
 Reference value :  2.59326e-07
 Reference value :  2.60912e-07
 Reference value :  2.67460e-07
 Reference value :  2.74639e-07
 Reference value :  2.86129e-07
 Reference value :  3.05279e-07
 Reference value :  3.95989e-07
 Reference value :  4.95538e-07
 Reference value :  5.00000e-07
 Reference value :  5.00010e-07
 Reference value :  5.00030e-07
 Reference value :  5.00070e-07
 Reference value :  5.00100e-07
 Reference value :  5.00108e-07
 Reference value :  5.00124e-07
 Reference value :  5.00220e-07
 Reference value :  5.00348e-07
 Reference value :  5.00863e-07
 Reference value :  5.01297e-07
 Reference value :  5.01759e-07
 Reference value :  5.02236e-07
 Reference value :  5.02764e-07
 Reference value :  5.03391e-07
 Reference value :  5.03998e-07
 Reference value :  5.04673e-07
 Reference value :  5.05387e-07
 Reference value :  5.06374e-07
 Reference value :  5.07573e-07
 Reference value :  5.09489e-07
 Reference value :  5.10818e-07
 Reference value :  5.12287e-07
 Reference value :  5.13808e-07
 Reference value :  5.15551e-07
 Reference value :  5.17708e-07
 Reference value :  5.22152e-07
 Reference value :  5.31456e-07
 Reference value :  5.54780e-07
 Reference value :  6.17204e-07
 Reference value :  7.50100e-07
 Reference value :  7.50110e-07
 Reference value :  7.50130e-07
 Reference value :  7.50170e-07
 Reference value :  7.50208e-07
 Reference value :  7.50223e-07
 Reference value :  7.50254e-07
 Reference value :  7.50317e-07
 Reference value :  7.50614e-07
 Reference value :  7.50849e-07
 Reference value :  7.51750e-07
 Reference value :  7.52256e-07
 Reference value :  7.52826e-07
 Reference value :  7.53617e-07
 Reference value :  7.54187e-07
 Reference value :  7.54843e-07
 Reference value :  7.55427e-07
 Reference value :  7.56077e-07
 Reference value :  7.56932e-07
 Reference value :  7.57834e-07
 Reference value :  7.59621e-07
 Reference value :  7.65260e-07
 Reference value :  7.71184e-07
 Reference value :  7.83032e-07
 Reference value :  8.54120e-07
 Reference value :  1.00000e-06
 Reference value :  1.00001e-06
 Reference value :  1.00003e-06
 Reference value :  1.00007e-06
 Reference value :  1.00011e-06
 Reference value :  1.00016e-06
 Reference value :  1.00022e-06
 Reference value :  1.00035e-06
 Reference value :  1.00086e-06
 Reference value :  1.00130e-06
 Reference value :  1.00223e-06
 Reference value :  1.00340e-06
 Reference value :  1.00458e-06
 Reference value :  1.00520e-06
 Reference value :  1.00580e-06
 Reference value :  1.00647e-06
 Reference value :  1.00804e-06
 Reference value :  1.00915e-06
 Reference value :  1.01087e-06
 Reference value :  1.01269e-06
 Reference value :  1.01416e-06
 Reference value :  1.01542e-06
 Reference value :  1.01662e-06
 Reference value :  1.01787e-06
 Reference value :  1.01897e-06
 Reference value :  1.02015e-06
 Reference value :  1.02146e-06
 Reference value :  1.02312e-06
 Reference value :  1.02506e-06
 Reference value :  1.02814e-06
 Reference value :  1.03378e-06
 Reference value :  1.04260e-06
 Reference value :  1.08825e-06
 Reference value :  1.22911e-06
 Reference value :  1.25011e-06
 Reference value :  1.25017e-06
 Reference value :  1.25021e-06
 Reference value :  1.25025e-06
 Reference value :  1.25032e-06
 Reference value :  1.25044e-06
 Reference value :  1.25061e-06
 Reference value :  1.25085e-06
 Reference value :  1.25126e-06
 Reference value :  1.25175e-06
 Reference value :  1.25226e-06
 Reference value :  1.25283e-06
 Reference value :  1.25363e-06
 Reference value :  1.25421e-06
 Reference value :  1.25488e-06
 Reference value :  1.25550e-06
 Reference value :  1.25617e-06
 Reference value :  1.25720e-06
 Reference value :  1.25836e-06
 Reference value :  1.26015e-06
 Reference value :  1.26275e-06
 Reference value :  1.26653e-06
 Reference value :  1.27409e-06
 Reference value :  1.28920e-06
 Reference value :  1.31944e-06
 Reference value :  1.37990e-06
 Reference value :  1.50000e-06
 Reference value :  1.50001e-06
 Reference value :  1.50007e-06
 Reference value :  1.50011e-06
 Reference value :  1.50012e-06
 Reference value :  1.50022e-06
 Reference value :  1.50035e-06
 Reference value :  1.50052e-06
 Reference value :  1.50086e-06
 Reference value :  1.50130e-06
 Reference value :  1.50176e-06
 Reference value :  1.50223e-06
 Reference value :  1.50276e-06
 Reference value :  1.50339e-06
 Reference value :  1.50399e-06
 Reference value :  1.50463e-06
 Reference value :  1.50532e-06
 Reference value :  1.50630e-06
 Reference value :  1.50747e-06
 Reference value :  1.50856e-06
 Reference value :  1.50964e-06
 Reference value :  1.51090e-06
 Reference value :  1.51229e-06
 Reference value :  1.51648e-06
 Reference value :  1.52110e-06
 Reference value :  1.54207e-06
 Reference value :  1.56417e-06
 Reference value :  1.67680e-06
 Reference value :  1.75011e-06
 Reference value :  1.75013e-06
 Reference value :  1.75020e-06
 Reference value :  1.75021e-06
 Reference value :  1.75022e-06
 Reference value :  1.75026e-06
 Reference value :  1.75032e-06
 Reference value :  1.75045e-06
 Reference value :  1.75062e-06
 Reference value :  1.75086e-06
 Reference value :  1.75127e-06
 Reference value :  1.75176e-06
 Reference value :  1.75226e-06
 Reference value :  1.75284e-06
 Reference value :  1.75363e-06
 Reference value :  1.75420e-06
 Reference value :  1.75485e-06
 Reference value :  1.75543e-06
 Reference value :  1.75608e-06
 Reference value :  1.75692e-06
 Reference value :  1.75784e-06
 Reference value :  1.75961e-06
 Reference value :  1.76187e-06
 Reference value :  1.76526e-06
 Reference value :  1.77126e-06
 Reference value :  1.78326e-06
 Reference value :  1.85525e-06
 Reference value :  1.95125e-06
 Reference value :  2.00001e-06
 Reference value :  2.00003e-06
 Reference value :  2.00007e-06
 Reference value :  2.00010e-06
 Reference value :  2.00011e-06
 Reference value :  2.00012e-06
 Reference value :  2.00016e-06
 Reference value :  2.00022e-06
 Reference value :  2.00035e-06
 Reference value :  2.00052e-06
 Reference value :  2.00086e-06
 Reference value :  2.00130e-06
 Reference value :  2.00176e-06
 Reference value :  2.00223e-06
 Reference value :  2.00276e-06
 Reference value :  2.00340e-06
 Reference value :  2.00403e-06
 Reference value :  2.00457e-06
 Reference value :  2.00520e-06
 Reference value :  2.00580e-06
 Reference value :  2.00647e-06
 Reference value :  2.00804e-06
 Reference value :  2.01087e-06
 Reference value :  2.01269e-06
 Reference value :  2.01416e-06
 Reference value :  2.01541e-06
 Reference value :  2.01662e-06
 Reference value :  2.01787e-06
 Reference value :  2.01897e-06
 Reference value :  2.02015e-06
 Reference value :  2.02146e-06
 Reference value :  2.02312e-06
 Reference value :  2.02506e-06
 Reference value :  2.02814e-06
 Reference value :  2.03377e-06
 Reference value :  2.04259e-06
 Reference value :  2.05949e-06
 Reference value :  2.08818e-06
 Reference value :  2.13989e-06
 Reference value :  2.24097e-06
 Reference value :  2.25011e-06
 Reference value :  2.25017e-06
 Reference value :  2.25020e-06
 Reference value :  2.25021e-06
 Reference value :  2.25022e-06
 Reference value :  2.25025e-06
 Reference value :  2.25032e-06
 Reference value :  2.25044e-06
 Reference value :  2.25061e-06
 Reference value :  2.25085e-06
 Reference value :  2.25126e-06
 Reference value :  2.25175e-06
 Reference value :  2.25226e-06
 Reference value :  2.25283e-06
 Reference value :  2.25363e-06
 Reference value :  2.25421e-06
 Reference value :  2.25488e-06
 Reference value :  2.25550e-06
 Reference value :  2.25617e-06
 Reference value :  2.25720e-06
 Reference value :  2.25836e-06
 Reference value :  2.26015e-06
 Reference value :  2.26275e-06
 Reference value :  2.26653e-06
 Reference value :  2.28922e-06
 Reference value :  2.31948e-06
 Reference value :  2.38000e-06
 Reference value :  2.48720e-06
 Reference value :  2.50000e-06
 Reference value :  2.50001e-06
 Reference value :  2.50003e-06
 Reference value :  2.50007e-06
 Reference value :  2.50010e-06
 Reference value :  2.50011e-06
 Reference value :  2.50012e-06
 Reference value :  2.50016e-06
 Reference value :  2.50022e-06
 Reference value :  2.50035e-06
 Reference value :  2.50052e-06
 Reference value :  2.50086e-06
 Reference value :  2.50130e-06
 Reference value :  2.50176e-06
 Reference value :  2.50223e-06
 Reference value :  2.50276e-06
 Reference value :  2.50339e-06
 Reference value :  2.50399e-06
 Reference value :  2.50463e-06
 Reference value :  2.50532e-06
 Reference value :  2.50630e-06
 Reference value :  2.50747e-06
 Reference value :  2.50856e-06
 Reference value :  2.50964e-06
 Reference value :  2.51091e-06
 Reference value :  2.51229e-06
 Reference value :  2.51649e-06
 Reference value :  2.52110e-06
 Reference value :  2.54208e-06
 Reference value :  2.56420e-06
 Reference value :  2.67691e-06
 Reference value :  2.75010e-06
 Reference value :  2.75013e-06
 Reference value :  2.75020e-06
 Reference value :  2.75022e-06
 Reference value :  2.75026e-06
 Reference value :  2.75032e-06
 Reference value :  2.75045e-06
 Reference value :  2.75062e-06
 Reference value :  2.75086e-06
 Reference value :  2.75127e-06
 Reference value :  2.75176e-06
 Reference value :  2.75226e-06
 Reference value :  2.75284e-06
 Reference value :  2.75363e-06
 Reference value :  2.75420e-06
 Reference value :  2.75485e-06
 Reference value :  2.75543e-06
 Reference value :  2.75608e-06
 Reference value :  2.75692e-06
 Reference value :  2.75783e-06
 Reference value :  2.75961e-06
 Reference value :  2.76187e-06
 Reference value :  2.76525e-06
 Reference value :  2.77125e-06
 Reference value :  2.78323e-06
 Reference value :  2.80721e-06
 Reference value :  2.95105e-06
 Reference value :  3.00000e-06
 Reference value :  3.00003e-06
 Reference value :  3.00007e-06
 Reference value :  3.00011e-06
 Reference value :  3.00012e-06
 Reference value :  3.00022e-06
 Reference value :  3.00035e-06
 Reference value :  3.00086e-06
 Reference value :  3.00130e-06
 Reference value :  3.00176e-06
 Reference value :  3.00223e-06
 Reference value :  3.00276e-06
 Reference value :  3.00340e-06
 Reference value :  3.00403e-06
 Reference value :  3.00457e-06
 Reference value :  3.00520e-06
 Reference value :  3.00580e-06
 Reference value :  3.00647e-06
 Reference value :  3.00715e-06
 Reference value :  3.00804e-06
 Reference value :  3.00914e-06
 Reference value :  3.01087e-06
 Reference value :  3.01269e-06
 Reference value :  3.01416e-06
 Reference value :  3.01541e-06
 Reference value :  3.01662e-06
 Reference value :  3.01787e-06
 Reference value :  3.01897e-06
 Reference value :  3.02015e-06
 Reference value :  3.02146e-06
 Reference value :  3.02312e-06
 Reference value :  3.02814e-06
 Reference value :  3.04258e-06
 Reference value :  3.08818e-06
 Reference value :  3.13702e-06
 Reference value :  3.18729e-06
 Reference value :  3.21784e-06
 Reference value :  3.25011e-06
 Reference value :  3.25013e-06
 Reference value :  3.25017e-06
 Reference value :  3.25020e-06
 Reference value :  3.25021e-06
 Reference value :  3.25022e-06
 Reference value :  3.25032e-06
 Reference value :  3.25062e-06
 Reference value :  3.25127e-06
 Reference value :  3.25176e-06
 Reference value :  3.25226e-06
 Reference value :  3.25364e-06
 Reference value :  3.25422e-06
 Reference value :  3.25489e-06
 Reference value :  3.25551e-06
 Reference value :  3.25618e-06
 Reference value :  3.25720e-06
 Reference value :  3.25839e-06
 Reference value :  3.26017e-06
 Reference value :  3.26279e-06
 Reference value :  3.26657e-06
 Reference value :  3.27414e-06
 Reference value :  3.31952e-06
 Reference value :  3.50000e-06
 Reference value :  3.50001e-06
 Reference value :  3.50003e-06
 Reference value :  3.50007e-06
 Reference value :  3.50010e-06
 Reference value :  3.50012e-06
 Reference value :  3.50022e-06
 Reference value :  3.50035e-06
 Reference value :  3.50052e-06
 Reference value :  3.50086e-06
 Reference value :  3.50130e-06
 Reference value :  3.50223e-06
 Reference value :  3.50276e-06
 Reference value :  3.50339e-06
 Reference value :  3.50399e-06
 Reference value :  3.50463e-06
 Reference value :  3.50532e-06
 Reference value :  3.50630e-06
 Reference value :  3.50747e-06
 Reference value :  3.50856e-06
 Reference value :  3.50964e-06
 Reference value :  3.51091e-06
 Reference value :  3.51228e-06
 Reference value :  3.51368e-06
 Reference value :  3.51649e-06
 Reference value :  3.52110e-06
 Reference value :  3.54210e-06
 Reference value :  3.56425e-06
 Reference value :  3.67696e-06
 Reference value :  3.75010e-06
 Reference value :  3.75011e-06
 Reference value :  3.75013e-06
 Reference value :  3.75017e-06
 Reference value :  3.75020e-06
 Reference value :  3.75021e-06
 Reference value :  3.75022e-06
 Reference value :  3.75026e-06
 Reference value :  3.75032e-06
 Reference value :  3.75045e-06
 Reference value :  3.75062e-06
 Reference value :  3.75086e-06
 Reference value :  3.75127e-06
 Reference value :  3.75176e-06
 Reference value :  3.75226e-06
 Reference value :  3.75283e-06
 Reference value :  3.75363e-06
 Reference value :  3.75420e-06
 Reference value :  3.75485e-06
 Reference value :  3.75543e-06
 Reference value :  3.75607e-06
 Reference value :  3.75692e-06
 Reference value :  3.75783e-06
 Reference value :  3.75961e-06
 Reference value :  3.76525e-06
 Reference value :  3.78321e-06
 Reference value :  3.80717e-06
 Reference value :  3.95091e-06
 Reference value :  4.00001e-06
 Reference value :  4.00003e-06
 Reference value :  4.00007e-06
 Reference value :  4.00011e-06
 Reference value :  4.00012e-06
 Reference value :  4.00022e-06
 Reference value :  4.00035e-06
 Reference value :  4.00052e-06
 Reference value :  4.00086e-06
 Reference value :  4.00130e-06
 Reference value :  4.00176e-06
 Reference value :  4.00223e-06
 Reference value :  4.00276e-06
 Reference value :  4.00340e-06
 Reference value :  4.00403e-06
 Reference value :  4.00457e-06
 Reference value :  4.00520e-06
 Reference value :  4.00580e-06
 Reference value :  4.00647e-06
 Reference value :  4.00715e-06
 Reference value :  4.00804e-06
 Reference value :  4.01086e-06
 Reference value :  4.01271e-06
 Reference value :  4.01432e-06
 Reference value :  4.01561e-06
 Reference value :  4.01684e-06
 Reference value :  4.01812e-06
 Reference value :  4.01924e-06
 Reference value :  4.02043e-06
 Reference value :  4.02175e-06
 Reference value :  4.02366e-06
 Reference value :  4.02556e-06
 Reference value :  4.02905e-06
 Reference value :  4.03466e-06
 Reference value :  4.04350e-06
 Reference value :  4.05276e-06
 Reference value :  4.05928e-06
 Reference value :  4.06568e-06
 Reference value :  4.07261e-06
 Reference value :  4.08060e-06
 Reference value :  4.09912e-06
 Reference value :  4.11087e-06
 Reference value :  4.11730e-06
 Reference value :  4.12355e-06
 Reference value :  4.12998e-06
 Reference value :  4.14627e-06
 Reference value :  4.17485e-06
 Reference value :  4.23764e-06
 Reference value :  4.25011e-06
 Reference value :  4.25013e-06
 Reference value :  4.25017e-06
 Reference value :  4.25020e-06
 Reference value :  4.25021e-06
 Reference value :  4.25022e-06
 Reference value :  4.25025e-06
 Reference value :  4.25032e-06
 Reference value :  4.25058e-06
 Reference value :  4.25078e-06
 Reference value :  4.25105e-06
 Reference value :  4.25158e-06
 Reference value :  4.25211e-06
 Reference value :  4.25266e-06
 Reference value :  4.25339e-06
 Reference value :  4.25423e-06
 Reference value :  4.25483e-06
 Reference value :  4.25619e-06
 Reference value :  4.25702e-06
 Reference value :  4.25972e-06
 Reference value :  4.26556e-06
 Reference value :  4.27160e-06
 Reference value :  4.30163e-06
 Reference value :  4.39689e-06
 Reference value :  4.50001e-06
 Reference value :  4.50003e-06
 Reference value :  4.50007e-06
 Reference value :  4.50010e-06
 Reference value :  4.50012e-06
 Reference value :  4.50016e-06
 Reference value :  4.50022e-06
 Reference value :  4.50035e-06
 Reference value :  4.50060e-06
 Reference value :  4.50097e-06
 Reference value :  4.50156e-06
 Reference value :  4.50212e-06
 Reference value :  4.50259e-06
 Reference value :  4.50315e-06
 Reference value :  4.50368e-06
 Reference value :  4.50432e-06
 Reference value :  4.50500e-06
 Reference value :  4.50565e-06
 Reference value :  4.50666e-06
 Reference value :  4.50740e-06
 Reference value :  4.50926e-06
 Reference value :  4.51030e-06
 Reference value :  4.51128e-06
 Reference value :  4.51240e-06
 Reference value :  4.51367e-06
 Reference value :  4.52115e-06
 Reference value :  4.54849e-06
 Reference value :  4.58495e-06
 Reference value :  4.65787e-06
 Reference value :  4.75010e-06
 Reference value :  4.75011e-06
 Reference value :  4.75013e-06
 Reference value :  4.75017e-06
 Reference value :  4.75020e-06
 Reference value :  4.75022e-06
 Reference value :  4.75025e-06
 Reference value :  4.75032e-06
 Reference value :  4.75040e-06
 Reference value :  4.75058e-06
 Reference value :  4.75078e-06
 Reference value :  4.75158e-06
 Reference value :  4.75211e-06
 Reference value :  4.75340e-06
 Reference value :  4.75421e-06
 Reference value :  4.75481e-06
 Reference value :  4.75549e-06
 Reference value :  4.75624e-06
 Reference value :  4.75712e-06
 Reference value :  4.75806e-06
 Reference value :  4.75973e-06
 Reference value :  4.76573e-06
 Reference value :  4.78357e-06
 Reference value :  4.80282e-06
 Reference value :  4.83762e-06
 Reference value :  4.89734e-06
 Reference value :  5.00001e-06
 Reference value :  5.00003e-06
 Reference value :  5.00007e-06
 Reference value :  5.00010e-06
 Reference value :  5.00012e-06
 Reference value :  5.00022e-06
 Reference value :  5.00035e-06
 Reference value :  5.00060e-06
 Reference value :  5.00097e-06
 Reference value :  5.00156e-06
 Reference value :  5.00211e-06
 Reference value :  5.00259e-06
 Reference value :  5.00315e-06
 Reference value :  5.00374e-06
 Reference value :  5.00441e-06
 Reference value :  5.00498e-06
 Reference value :  5.00559e-06
 Reference value :  5.00609e-06
 Reference value :  5.00669e-06
 Reference value :  5.00832e-06
 Reference value :  5.00988e-06
 Reference value :  5.01170e-06
 Reference value :  5.01325e-06
 Reference value :  5.01486e-06
 Reference value :  5.01601e-06
 Reference value :  5.01706e-06
 Reference value :  5.01818e-06
 Reference value :  5.01941e-06
 Reference value :  5.02075e-06
 Reference value :  5.02203e-06
 Reference value :  5.02411e-06
 Reference value :  5.02628e-06
 Reference value :  5.03061e-06
 Reference value :  5.03545e-06
 Reference value :  5.04236e-06
 Reference value :  5.04666e-06
 Reference value :  5.05143e-06
 Reference value :  5.05748e-06
 Reference value :  5.06340e-06
 Reference value :  5.06983e-06
 Reference value :  5.07651e-06
 Reference value :  5.08602e-06
 Reference value :  5.09475e-06
 Reference value :  5.10422e-06
 Reference value :  5.11120e-06
 Reference value :  5.11608e-06
 Reference value :  5.12119e-06
 Reference value :  5.12608e-06
 Reference value :  5.13712e-06
 Reference value :  5.14463e-06
 Reference value :  5.18107e-06
 Reference value :  5.25010e-06
 Reference value :  5.25011e-06
 Reference value :  5.25013e-06
 Reference value :  5.25017e-06
 Reference value :  5.25020e-06
 Reference value :  5.25021e-06
 Reference value :  5.25026e-06
 Reference value :  5.25032e-06
 Reference value :  5.25058e-06
 Reference value :  5.25075e-06
 Reference value :  5.25104e-06
 Reference value :  5.25152e-06
 Reference value :  5.25208e-06
 Reference value :  5.25259e-06
 Reference value :  5.25336e-06
 Reference value :  5.25420e-06
 Reference value :  5.25480e-06
 Reference value :  5.25618e-06
 Reference value :  5.25702e-06
 Reference value :  5.25793e-06
 Reference value :  5.25971e-06
 Reference value :  5.26555e-06
 Reference value :  5.27157e-06
 Reference value :  5.30060e-06
 Reference value :  5.33342e-06
 Reference value :  5.39012e-06
 Reference value :  5.48974e-06
 Reference value :  5.50000e-06
 Reference value :  5.50001e-06
 Reference value :  5.50007e-06
 Reference value :  5.50010e-06
 Reference value :  5.50011e-06
 Reference value :  5.50012e-06
 Reference value :  5.50022e-06
 Reference value :  5.50060e-06
 Reference value :  5.50097e-06
 Reference value :  5.50156e-06
 Reference value :  5.50212e-06
 Reference value :  5.50259e-06
 Reference value :  5.50315e-06
 Reference value :  5.50366e-06
 Reference value :  5.50430e-06
 Reference value :  5.50497e-06
 Reference value :  5.50562e-06
 Reference value :  5.50662e-06
 Reference value :  5.50736e-06
 Reference value :  5.50825e-06
 Reference value :  5.50923e-06
 Reference value :  5.51126e-06
 Reference value :  5.51238e-06
 Reference value :  5.51619e-06
 Reference value :  5.53075e-06
 Reference value :  5.58763e-06
 Reference value :  5.75010e-06
 Reference value :  5.75011e-06
 Reference value :  5.75013e-06
 Reference value :  5.75017e-06
 Reference value :  5.75020e-06
 Reference value :  5.75021e-06
 Reference value :  5.75025e-06
 Reference value :  5.75040e-06
 Reference value :  5.75058e-06
 Reference value :  5.75078e-06
 Reference value :  5.75105e-06
 Reference value :  5.75158e-06
 Reference value :  5.75211e-06
 Reference value :  5.75266e-06
 Reference value :  5.75340e-06
 Reference value :  5.75421e-06
 Reference value :  5.75481e-06
 Reference value :  5.75550e-06
 Reference value :  5.75625e-06
 Reference value :  5.75710e-06
 Reference value :  5.75805e-06
 Reference value :  5.76217e-06
 Reference value :  5.77223e-06
 Reference value :  5.80241e-06
 Reference value :  5.89600e-06
 Reference value :  6.00000e-06
 Reference value :  6.00001e-06
 Reference value :  6.00003e-06
 Reference value :  6.00007e-06
 Reference value :  6.00010e-06
 Reference value :  6.00012e-06
 Reference value :  6.00022e-06
 Reference value :  6.00035e-06
 Reference value :  6.00060e-06
 Reference value :  6.00097e-06
 Reference value :  6.00156e-06
 Reference value :  6.00211e-06
 Reference value :  6.00259e-06
 Reference value :  6.00315e-06
 Reference value :  6.00374e-06
 Reference value :  6.00441e-06
 Reference value :  6.00498e-06
 Reference value :  6.00559e-06
 Reference value :  6.00609e-06
 Reference value :  6.00669e-06
 Reference value :  6.00832e-06
 Reference value :  6.00988e-06
 Reference value :  6.01170e-06
 Reference value :  6.01325e-06
 Reference value :  6.01485e-06
 Reference value :  6.01601e-06
 Reference value :  6.01706e-06
 Reference value :  6.01818e-06
 Reference value :  6.01941e-06
 Reference value :  6.02076e-06
 Reference value :  6.02204e-06
 Reference value :  6.02413e-06
 Reference value :  6.03065e-06
 Reference value :  6.03551e-06
 Reference value :  6.03940e-06
 Reference value :  6.04290e-06
 Reference value :  6.04657e-06
 Reference value :  6.05126e-06
 Reference value :  6.05787e-06
 Reference value :  6.06495e-06
 Reference value :  6.08040e-06
 Reference value :  6.09614e-06
 Reference value :  6.11823e-06
 Reference value :  6.13274e-06
 Reference value :  6.14191e-06
 Reference value :  6.16241e-06
 Reference value :  6.17355e-06
 Reference value :  6.18444e-06
 Reference value :  6.22355e-06
 Reference value :  6.25011e-06
 Reference value :  6.25013e-06
 Reference value :  6.25020e-06
 Reference value :  6.25022e-06
 Reference value :  6.25026e-06
 Reference value :  6.25032e-06
 Reference value :  6.25040e-06
 Reference value :  6.25075e-06
 Reference value :  6.25152e-06
 Reference value :  6.25208e-06
 Reference value :  6.25259e-06
 Reference value :  6.25336e-06
 Reference value :  6.25420e-06
 Reference value :  6.25480e-06
 Reference value :  6.25549e-06
 Reference value :  6.25618e-06
 Reference value :  6.25702e-06
 Reference value :  6.25793e-06
 Reference value :  6.25971e-06
 Reference value :  6.26555e-06
 Reference value :  6.27156e-06
 Reference value :  6.30050e-06
 Reference value :  6.33316e-06
 Reference value :  6.38952e-06
 Reference value :  6.50000e-06
 Reference value :  6.50001e-06
 Reference value :  6.50003e-06
 Reference value :  6.50007e-06
 Reference value :  6.50010e-06
 Reference value :  6.50011e-06
 Reference value :  6.50016e-06
 Reference value :  6.50022e-06
 Reference value :  6.50060e-06
 Reference value :  6.50097e-06
 Reference value :  6.50156e-06
 Reference value :  6.50212e-06
 Reference value :  6.50259e-06
 Reference value :  6.50315e-06
 Reference value :  6.50366e-06
 Reference value :  6.50430e-06
 Reference value :  6.50562e-06
 Reference value :  6.50662e-06
 Reference value :  6.50736e-06
 Reference value :  6.50924e-06
 Reference value :  6.51028e-06
 Reference value :  6.51238e-06
 Reference value :  6.51365e-06
 Reference value :  6.51619e-06
 Reference value :  6.52127e-06
 Reference value :  6.53066e-06
 Reference value :  6.54942e-06
 Reference value :  6.66202e-06
 Reference value :  6.75011e-06
 Reference value :  6.75013e-06
 Reference value :  6.75017e-06
 Reference value :  6.75021e-06
 Reference value :  6.75025e-06
 Reference value :  6.75040e-06
 Reference value :  6.75058e-06
 Reference value :  6.75105e-06
 Reference value :  6.75158e-06
 Reference value :  6.75211e-06
 Reference value :  6.75266e-06
 Reference value :  6.75340e-06
 Reference value :  6.75421e-06
 Reference value :  6.75481e-06
 Reference value :  6.75549e-06
 Reference value :  6.75624e-06
 Reference value :  6.75710e-06
 Reference value :  6.75805e-06
 Reference value :  6.75966e-06
 Reference value :  6.76217e-06
 Reference value :  6.77222e-06
 Reference value :  6.78328e-06
 Reference value :  6.80229e-06
 Reference value :  6.89531e-06
 Reference value :  7.00000e-06
 Reference value :  7.00003e-06
 Reference value :  7.00010e-06
 Reference value :  7.00012e-06
 Reference value :  7.00022e-06
 Reference value :  7.00035e-06
 Reference value :  7.00060e-06
 Reference value :  7.00097e-06
 Reference value :  7.00156e-06
 Reference value :  7.00211e-06
 Reference value :  7.00259e-06
 Reference value :  7.00315e-06
 Reference value :  7.00374e-06
 Reference value :  7.00441e-06
 Reference value :  7.00498e-06
 Reference value :  7.00559e-06
 Reference value :  7.00609e-06
 Reference value :  7.00669e-06
 Reference value :  7.00754e-06
 Reference value :  7.00832e-06
 Reference value :  7.00988e-06
 Reference value :  7.01170e-06
 Reference value :  7.01325e-06
 Reference value :  7.01485e-06
 Reference value :  7.01601e-06
 Reference value :  7.01706e-06
 Reference value :  7.01819e-06
 Reference value :  7.01942e-06
 Reference value :  7.02077e-06
 Reference value :  7.02417e-06
 Reference value :  7.02636e-06
 Reference value :  7.02840e-06
 Reference value :  7.03375e-06
 Reference value :  7.03823e-06
 Reference value :  7.04129e-06
 Reference value :  7.04461e-06
 Reference value :  7.04911e-06
 Reference value :  7.05371e-06
 Reference value :  7.06094e-06
 Reference value :  7.08376e-06
 Reference value :  7.10408e-06
 Reference value :  7.13526e-06
 Reference value :  7.17535e-06
 Reference value :  7.24168e-06
 Reference value :  7.25010e-06
 Reference value :  7.25011e-06
 Reference value :  7.25013e-06
 Reference value :  7.25017e-06
 Reference value :  7.25020e-06
 Reference value :  7.25021e-06
 Reference value :  7.25022e-06
 Reference value :  7.25025e-06
 Reference value :  7.25032e-06
 Reference value :  7.25058e-06
 Reference value :  7.25103e-06
 Reference value :  7.25152e-06
 Reference value :  7.25258e-06
 Reference value :  7.25336e-06
 Reference value :  7.25419e-06
 Reference value :  7.25479e-06
 Reference value :  7.25548e-06
 Reference value :  7.25616e-06
 Reference value :  7.25700e-06
 Reference value :  7.25790e-06
 Reference value :  7.25968e-06
 Reference value :  7.26198e-06
 Reference value :  7.26547e-06
 Reference value :  7.27140e-06
 Reference value :  7.28223e-06
 Reference value :  7.30006e-06
 Reference value :  7.33245e-06
 Reference value :  7.36920e-06
 Reference value :  7.40947e-06
 Reference value :  7.48808e-06
 Reference value :  7.50000e-06
 Reference value :  7.50001e-06
 Reference value :  7.50007e-06
 Reference value :  7.50010e-06
 Reference value :  7.50011e-06
 Reference value :  7.50012e-06
 Reference value :  7.50022e-06
 Reference value :  7.50060e-06
 Reference value :  7.50097e-06
 Reference value :  7.50156e-06
 Reference value :  7.50212e-06
 Reference value :  7.50259e-06
 Reference value :  7.50366e-06
 Reference value :  7.50430e-06
 Reference value :  7.50497e-06
 Reference value :  7.50562e-06
 Reference value :  7.50662e-06
 Reference value :  7.50737e-06
 Reference value :  7.50826e-06
 Reference value :  7.50926e-06
 Reference value :  7.51031e-06
 Reference value :  7.51129e-06
 Reference value :  7.51242e-06
 Reference value :  7.51370e-06
 Reference value :  7.51625e-06
 Reference value :  7.52109e-06
 Reference value :  7.53008e-06
 Reference value :  7.54806e-06
 Reference value :  7.58404e-06
 Reference value :  7.65598e-06
 Reference value :  7.75011e-06
 Reference value :  7.75013e-06
 Reference value :  7.75017e-06
 Reference value :  7.75020e-06
 Reference value :  7.75021e-06
 Reference value :  7.75022e-06
 Reference value :  7.75025e-06
 Reference value :  7.75032e-06
 Reference value :  7.75040e-06
 Reference value :  7.75058e-06
 Reference value :  7.75078e-06
 Reference value :  7.75158e-06
 Reference value :  7.75211e-06
 Reference value :  7.75266e-06
 Reference value :  7.75340e-06
 Reference value :  7.75421e-06
 Reference value :  7.75481e-06
 Reference value :  7.75549e-06
 Reference value :  7.75624e-06
 Reference value :  7.75710e-06
 Reference value :  7.75805e-06
 Reference value :  7.75966e-06
 Reference value :  7.76560e-06
 Reference value :  7.77219e-06
 Reference value :  7.80214e-06
 Reference value :  7.83637e-06
 Reference value :  7.89463e-06
 Reference value :  7.99872e-06
 Reference value :  8.00001e-06
 Reference value :  8.00003e-06
 Reference value :  8.00007e-06
 Reference value :  8.00010e-06
 Reference value :  8.00012e-06
 Reference value :  8.00016e-06
 Reference value :  8.00022e-06
 Reference value :  8.00035e-06
 Reference value :  8.00060e-06
 Reference value :  8.00097e-06
 Reference value :  8.00156e-06
 Reference value :  8.00211e-06
 Reference value :  8.00259e-06
 Reference value :  8.00315e-06
 Reference value :  8.00374e-06
 Reference value :  8.00441e-06
 Reference value :  8.00497e-06
 Reference value :  8.00558e-06
 Reference value :  8.00609e-06
 Reference value :  8.00668e-06
 Reference value :  8.00753e-06
 Reference value :  8.00831e-06
 Reference value :  8.00912e-06
 Reference value :  8.01003e-06
 Reference value :  8.01109e-06
 Reference value :  8.01223e-06
 Reference value :  8.01451e-06
 Reference value :  8.01907e-06
 Reference value :  8.02758e-06
 Reference value :  8.04458e-06
 Reference value :  8.07842e-06
 Reference value :  8.14611e-06
 Reference value :  8.25010e-06
 Reference value :  8.25011e-06
 Reference value :  8.25013e-06
 Reference value :  8.25017e-06
 Reference value :  8.25020e-06
 Reference value :  8.25021e-06
 Reference value :  8.25022e-06
 Reference value :  8.25026e-06
 Reference value :  8.25032e-06
 Reference value :  8.25044e-06
 Reference value :  8.25062e-06
 Reference value :  8.25119e-06
 Reference value :  8.25167e-06
 Reference value :  8.25219e-06
 Reference value :  8.25275e-06
 Reference value :  8.25350e-06
 Reference value :  8.25438e-06
 Reference value :  8.25531e-06
 Reference value :  8.25628e-06
 Reference value :  8.25732e-06
 Reference value :  8.25896e-06
 Reference value :  8.26058e-06
 Reference value :  8.26356e-06
 Reference value :  8.26710e-06
 Reference value :  8.27418e-06
 Reference value :  8.28577e-06
 Reference value :  8.30603e-06
 Reference value :  8.34656e-06
 Reference value :  8.42761e-06
 Reference value :  8.50001e-06
 Reference value :  8.50003e-06
 Reference value :  8.50007e-06
 Reference value :  8.50010e-06
 Reference value :  8.50012e-06
 Reference value :  8.50022e-06
 Reference value :  8.50035e-06
 Reference value :  8.50060e-06
 Reference value :  8.50098e-06
 Reference value :  8.50151e-06
 Reference value :  8.50209e-06
 Reference value :  8.50256e-06
 Reference value :  8.50312e-06
 Reference value :  8.50374e-06
 Reference value :  8.50444e-06
 Reference value :  8.50513e-06
 Reference value :  8.50569e-06
 Reference value :  8.50630e-06
 Reference value :  8.50703e-06
 Reference value :  8.50781e-06
 Reference value :  8.50937e-06
 Reference value :  8.51475e-06
 Reference value :  8.52126e-06
 Reference value :  8.52722e-06
 Reference value :  8.53287e-06
 Reference value :  8.53666e-06
 Reference value :  8.54035e-06
 Reference value :  8.54307e-06
 Reference value :  8.54559e-06
 Reference value :  8.54796e-06
 Reference value :  8.55048e-06
 Reference value :  8.55330e-06
 Reference value :  8.55664e-06
 Reference value :  8.56021e-06
 Reference value :  8.56428e-06
 Reference value :  8.56828e-06
 Reference value :  8.57492e-06
 Reference value :  8.58218e-06
 Reference value :  8.59446e-06
 Reference value :  8.63926e-06
 Reference value :  8.75010e-06
 Reference value :  8.75011e-06
 Reference value :  8.75013e-06
 Reference value :  8.75017e-06
 Reference value :  8.75020e-06
 Reference value :  8.75021e-06
 Reference value :  8.75022e-06
 Reference value :  8.75026e-06
 Reference value :  8.75032e-06
 Reference value :  8.75045e-06
 Reference value :  8.75062e-06
 Reference value :  8.75086e-06
 Reference value :  8.75127e-06
 Reference value :  8.75176e-06
 Reference value :  8.75226e-06
 Reference value :  8.75364e-06
 Reference value :  8.75422e-06
 Reference value :  8.75488e-06
 Reference value :  8.75549e-06
 Reference value :  8.75615e-06
 Reference value :  8.75715e-06
 Reference value :  8.75830e-06
 Reference value :  8.76007e-06
 Reference value :  8.76264e-06
 Reference value :  8.76633e-06
 Reference value :  8.78844e-06
 Reference value :  8.81791e-06
 Reference value :  8.87687e-06
 Reference value :  8.99479e-06
No. of Data Rows : 1322
ngspice-44 done
