
Note: Compatibility modes selected: hs a


Circuit: ** sch_path: /home/ece/cace/sar-adc-using-sky130-pdk/runs/run_2025-09-11_01-55-17/parameters/dnl/run_0/sar_output_dnl.sch

option SCALE: Scale is set to 1e-06 for instance and model parameters
option SCALE: Scale is set to 1e-06 for instance and model parameters
option SCALE: Scale is set to 1e-06 for instance and model parameters
option SCALE: Scale is set to 1e-06 for instance and model parameters
Doing analysis at TEMP = 27.000000 and TNOM = 27.000000

Using KLU as Direct Linear Solver
Operating point simulation skipped by 'uic',
  now using transient initial conditions.
 Reference value :  1.00000e-12
 Reference value :  1.02772e-12
 Reference value :  1.08316e-12
 Reference value :  1.19404e-12
 Reference value :  1.33846e-12
 Reference value :  1.62729e-12
 Reference value :  2.20497e-12
 Reference value :  3.05924e-12
 Reference value :  3.96194e-12
 Reference value :  5.17513e-12
 Reference value :  6.89105e-12
 Reference value :  1.02443e-11
 Reference value :  1.40831e-11
 Reference value :  2.08966e-11
 Reference value :  2.76545e-11
 Reference value :  3.67417e-11
 Reference value :  4.80549e-11
 Reference value :  6.53630e-11
 Reference value :  8.56403e-11
 Reference value :  1.00000e-10
 Reference value :  1.01214e-10
 Reference value :  1.03642e-10
 Reference value :  1.08497e-10
 Reference value :  1.18208e-10
 Reference value :  1.37629e-10
 Reference value :  1.76472e-10
 Reference value :  2.54158e-10
 Reference value :  4.06072e-10
 Reference value :  5.68390e-10
 Reference value :  8.34311e-10
 Reference value :  1.18202e-09
 Reference value :  1.62726e-09
 Reference value :  2.25685e-09
 Reference value :  3.04790e-09
 Reference value :  3.88140e-09
 Reference value :  4.61701e-09
 Reference value :  5.43161e-09
 Reference value :  6.64962e-09
 Reference value :  7.82727e-09
 Reference value :  9.07332e-09
 Reference value :  1.00353e-08
 Reference value :  1.09682e-08
 Reference value :  1.19663e-08
 Reference value :  1.28902e-08
 Reference value :  1.47380e-08
 Reference value :  1.71054e-08
 Reference value :  2.08148e-08
 Reference value :  2.47276e-08
 Reference value :  2.84378e-08
 Reference value :  3.19627e-08
 Reference value :  3.49811e-08
 Reference value :  3.81361e-08
 Reference value :  4.20536e-08
 Reference value :  4.82847e-08
 Reference value :  5.82447e-08
 Reference value :  7.30188e-08
 Reference value :  9.93190e-08
 Reference value :  1.51920e-07
 Reference value :  2.15561e-07
 Reference value :  2.50100e-07
 Reference value :  2.50110e-07
 Reference value :  2.50130e-07
 Reference value :  2.50170e-07
 Reference value :  2.50200e-07
 Reference value :  2.50201e-07
 Reference value :  2.50202e-07
 Reference value :  2.50204e-07
 Reference value :  2.50208e-07
 Reference value :  2.50216e-07
 Reference value :  2.50233e-07
 Reference value :  2.50266e-07
 Reference value :  2.50332e-07
 Reference value :  2.50408e-07
 Reference value :  2.50559e-07
 Reference value :  2.50706e-07
 Reference value :  2.51000e-07
 Reference value :  2.51328e-07
 Reference value :  2.51814e-07
 Reference value :  2.52369e-07
 Reference value :  2.52973e-07
 Reference value :  2.53861e-07
 Reference value :  2.54730e-07
 Reference value :  2.55539e-07
 Reference value :  2.56397e-07
 Reference value :  2.57284e-07
 Reference value :  2.58159e-07
 Reference value :  2.59693e-07
 Reference value :  2.61760e-07
 Reference value :  2.63982e-07
 Reference value :  2.67676e-07
 Reference value :  2.73182e-07
 Reference value :  2.84193e-07
 Reference value :  3.06216e-07
 Reference value :  3.29835e-07
 Reference value :  3.48732e-07
 Reference value :  3.62646e-07
 Reference value :  3.71511e-07
 Reference value :  3.79647e-07
 Reference value :  3.87977e-07
 Reference value :  3.95747e-07
 Reference value :  4.03433e-07
 Reference value :  4.18805e-07
 Reference value :  4.35229e-07
 Reference value :  4.62070e-07
 Reference value :  5.00000e-07
 Reference value :  5.00010e-07
 Reference value :  5.00030e-07
 Reference value :  5.00070e-07
 Reference value :  5.00100e-07
 Reference value :  5.00104e-07
 Reference value :  5.00113e-07
 Reference value :  5.00129e-07
 Reference value :  5.00163e-07
 Reference value :  5.00230e-07
 Reference value :  5.00365e-07
 Reference value :  5.00551e-07
 Reference value :  5.00924e-07
 Reference value :  5.01509e-07
 Reference value :  5.02039e-07
 Reference value :  5.02623e-07
 Reference value :  5.03251e-07
 Reference value :  5.03978e-07
 Reference value :  5.04735e-07
 Reference value :  5.05509e-07
 Reference value :  5.06554e-07
 Reference value :  5.07571e-07
 Reference value :  5.09444e-07
 Reference value :  5.12251e-07
 Reference value :  5.14155e-07
 Reference value :  5.16294e-07
 Reference value :  5.18431e-07
 Reference value :  5.20902e-07
 Reference value :  5.23625e-07
 Reference value :  5.28183e-07
 Reference value :  5.34821e-07
 Reference value :  5.45811e-07
 Reference value :  5.65122e-07
 Reference value :  5.97493e-07
 Reference value :  6.56102e-07
 Reference value :  7.50100e-07
 Reference value :  7.50110e-07
 Reference value :  7.50130e-07
 Reference value :  7.50170e-07
 Reference value :  7.50200e-07
 Reference value :  7.50201e-07
 Reference value :  7.50202e-07
 Reference value :  7.50205e-07
 Reference value :  7.50211e-07
 Reference value :  7.50223e-07
 Reference value :  7.50247e-07
 Reference value :  7.50295e-07
 Reference value :  7.50390e-07
 Reference value :  7.50580e-07
 Reference value :  7.50954e-07
 Reference value :  7.51429e-07
 Reference value :  7.51992e-07
 Reference value :  7.52594e-07
 Reference value :  7.53250e-07
 Reference value :  7.54107e-07
 Reference value :  7.54726e-07
 Reference value :  7.55451e-07
 Reference value :  7.56122e-07
 Reference value :  7.56855e-07
 Reference value :  7.57771e-07
 Reference value :  7.58770e-07
 Reference value :  7.59803e-07
 Reference value :  7.61318e-07
 Reference value :  7.62895e-07
 Reference value :  7.65205e-07
 Reference value :  7.67936e-07
 Reference value :  7.72137e-07
 Reference value :  7.80541e-07
 Reference value :  7.93223e-07
 Reference value :  8.18588e-07
 Reference value :  8.69317e-07
 Reference value :  9.70776e-07
 Reference value :  1.00000e-06
 Reference value :  1.00001e-06
 Reference value :  1.00003e-06
 Reference value :  1.00007e-06
 Reference value :  1.00010e-06
 Reference value :  1.00010e-06
 Reference value :  1.00011e-06
 Reference value :  1.00013e-06
 Reference value :  1.00016e-06
 Reference value :  1.00023e-06
 Reference value :  1.00037e-06
 Reference value :  1.00055e-06
 Reference value :  1.00093e-06
 Reference value :  1.00151e-06
 Reference value :  1.00204e-06
 Reference value :  1.00261e-06
 Reference value :  1.00329e-06
 Reference value :  1.00408e-06
 Reference value :  1.00485e-06
 Reference value :  1.00553e-06
 Reference value :  1.00625e-06
 Reference value :  1.00697e-06
 Reference value :  1.00776e-06
 Reference value :  1.00855e-06
 Reference value :  1.00965e-06
 Reference value :  1.01106e-06
 Reference value :  1.01327e-06
 Reference value :  1.01475e-06
 Reference value :  1.01640e-06
 Reference value :  1.01804e-06
 Reference value :  1.01953e-06
 Reference value :  1.02078e-06
 Reference value :  1.02208e-06
 Reference value :  1.02344e-06
 Reference value :  1.02506e-06
 Reference value :  1.02674e-06
 Reference value :  1.02916e-06
 Reference value :  1.03230e-06
 Reference value :  1.03831e-06
 Reference value :  1.04777e-06
 Reference value :  1.06498e-06
 Reference value :  1.09284e-06
 Reference value :  1.13410e-06
 Reference value :  1.17551e-06
 Reference value :  1.20553e-06
 Reference value :  1.22718e-06
 Reference value :  1.24670e-06
 Reference value :  1.25010e-06
 Reference value :  1.25011e-06
 Reference value :  1.25013e-06
 Reference value :  1.25017e-06
 Reference value :  1.25020e-06
 Reference value :  1.25020e-06
 Reference value :  1.25020e-06
 Reference value :  1.25021e-06
 Reference value :  1.25021e-06
 Reference value :  1.25022e-06
 Reference value :  1.25025e-06
 Reference value :  1.25029e-06
 Reference value :  1.25039e-06
 Reference value :  1.25058e-06
 Reference value :  1.25091e-06
 Reference value :  1.25141e-06
 Reference value :  1.25204e-06
 Reference value :  1.25262e-06
 Reference value :  1.25330e-06
 Reference value :  1.25412e-06
 Reference value :  1.25473e-06
 Reference value :  1.25544e-06
 Reference value :  1.25634e-06
 Reference value :  1.25717e-06
 Reference value :  1.25832e-06
 Reference value :  1.26024e-06
 Reference value :  1.26219e-06
 Reference value :  1.26533e-06
 Reference value :  1.26928e-06
 Reference value :  1.27718e-06
 Reference value :  1.29297e-06
 Reference value :  1.32455e-06
 Reference value :  1.38771e-06
 Reference value :  1.47992e-06
 Reference value :  1.50000e-06
 Reference value :  1.50001e-06
 Reference value :  1.50003e-06
 Reference value :  1.50007e-06
 Reference value :  1.50010e-06
 Reference value :  1.50010e-06
 Reference value :  1.50011e-06
 Reference value :  1.50013e-06
 Reference value :  1.50016e-06
 Reference value :  1.50023e-06
 Reference value :  1.50036e-06
 Reference value :  1.50054e-06
 Reference value :  1.50089e-06
 Reference value :  1.50139e-06
 Reference value :  1.50190e-06
 Reference value :  1.50244e-06
 Reference value :  1.50310e-06
 Reference value :  1.50375e-06
 Reference value :  1.50450e-06
 Reference value :  1.50536e-06
 Reference value :  1.50620e-06
 Reference value :  1.50748e-06
 Reference value :  1.50883e-06
 Reference value :  1.51009e-06
 Reference value :  1.51140e-06
 Reference value :  1.51305e-06
 Reference value :  1.51458e-06
 Reference value :  1.51653e-06
 Reference value :  1.51832e-06
 Reference value :  1.52191e-06
 Reference value :  1.52902e-06
 Reference value :  1.53993e-06
 Reference value :  1.56173e-06
 Reference value :  1.60535e-06
 Reference value :  1.69258e-06
 Reference value :  1.75010e-06
 Reference value :  1.75011e-06
 Reference value :  1.75013e-06
 Reference value :  1.75017e-06
 Reference value :  1.75020e-06
 Reference value :  1.75020e-06
 Reference value :  1.75020e-06
 Reference value :  1.75021e-06
 Reference value :  1.75021e-06
 Reference value :  1.75022e-06
 Reference value :  1.75025e-06
 Reference value :  1.75029e-06
 Reference value :  1.75039e-06
 Reference value :  1.75058e-06
 Reference value :  1.75091e-06
 Reference value :  1.75141e-06
 Reference value :  1.75204e-06
 Reference value :  1.75262e-06
 Reference value :  1.75330e-06
 Reference value :  1.75414e-06
 Reference value :  1.75475e-06
 Reference value :  1.75545e-06
 Reference value :  1.75614e-06
 Reference value :  1.75687e-06
 Reference value :  1.75781e-06
 Reference value :  1.75884e-06
 Reference value :  1.76089e-06
 Reference value :  1.76307e-06
 Reference value :  1.76681e-06
 Reference value :  1.77159e-06
 Reference value :  1.78117e-06
 Reference value :  1.80031e-06
 Reference value :  1.83861e-06
 Reference value :  1.91520e-06
 Reference value :  2.00000e-06
 Reference value :  2.00001e-06
 Reference value :  2.00003e-06
 Reference value :  2.00007e-06
 Reference value :  2.00010e-06
 Reference value :  2.00010e-06
 Reference value :  2.00011e-06
 Reference value :  2.00013e-06
 Reference value :  2.00016e-06
 Reference value :  2.00023e-06
 Reference value :  2.00036e-06
 Reference value :  2.00054e-06
 Reference value :  2.00089e-06
 Reference value :  2.00139e-06
 Reference value :  2.00190e-06
 Reference value :  2.00244e-06
 Reference value :  2.00310e-06
 Reference value :  2.00375e-06
 Reference value :  2.00453e-06
 Reference value :  2.00519e-06
 Reference value :  2.00590e-06
 Reference value :  2.00674e-06
 Reference value :  2.00748e-06
 Reference value :  2.00827e-06
 Reference value :  2.00933e-06
 Reference value :  2.01037e-06
 Reference value :  2.01228e-06
 Reference value :  2.01468e-06
 Reference value :  2.01664e-06
 Reference value :  2.01870e-06
 Reference value :  2.02020e-06
 Reference value :  2.02160e-06
 Reference value :  2.02284e-06
 Reference value :  2.02423e-06
 Reference value :  2.02576e-06
 Reference value :  2.02803e-06
 Reference value :  2.03018e-06
 Reference value :  2.03425e-06
 Reference value :  2.04000e-06
 Reference value :  2.04897e-06
 Reference value :  2.06425e-06
 Reference value :  2.08750e-06
 Reference value :  2.12250e-06
 Reference value :  2.16164e-06
 Reference value :  2.18747e-06
 Reference value :  2.21283e-06
 Reference value :  2.22619e-06
 Reference value :  2.23925e-06
 Reference value :  2.25010e-06
 Reference value :  2.25011e-06
 Reference value :  2.25013e-06
 Reference value :  2.25017e-06
 Reference value :  2.25020e-06
 Reference value :  2.25020e-06
 Reference value :  2.25020e-06
 Reference value :  2.25021e-06
 Reference value :  2.25021e-06
 Reference value :  2.25022e-06
 Reference value :  2.25025e-06
 Reference value :  2.25029e-06
 Reference value :  2.25039e-06
 Reference value :  2.25057e-06
 Reference value :  2.25090e-06
 Reference value :  2.25139e-06
 Reference value :  2.25202e-06
 Reference value :  2.25260e-06
 Reference value :  2.25328e-06
 Reference value :  2.25412e-06
 Reference value :  2.25472e-06
 Reference value :  2.25540e-06
 Reference value :  2.25622e-06
 Reference value :  2.25718e-06
 Reference value :  2.25818e-06
 Reference value :  2.26016e-06
 Reference value :  2.26205e-06
 Reference value :  2.26518e-06
 Reference value :  2.26900e-06
 Reference value :  2.27664e-06
 Reference value :  2.29191e-06
 Reference value :  2.32246e-06
 Reference value :  2.38356e-06
 Reference value :  2.46552e-06
 Reference value :  2.50000e-06
 Reference value :  2.50001e-06
 Reference value :  2.50003e-06
 Reference value :  2.50007e-06
 Reference value :  2.50010e-06
 Reference value :  2.50010e-06
 Reference value :  2.50011e-06
 Reference value :  2.50013e-06
 Reference value :  2.50016e-06
 Reference value :  2.50023e-06
 Reference value :  2.50036e-06
 Reference value :  2.50054e-06
 Reference value :  2.50089e-06
 Reference value :  2.50139e-06
 Reference value :  2.50190e-06
 Reference value :  2.50240e-06
 Reference value :  2.50303e-06
 Reference value :  2.50367e-06
 Reference value :  2.50454e-06
 Reference value :  2.50534e-06
 Reference value :  2.50628e-06
 Reference value :  2.50760e-06
 Reference value :  2.50903e-06
 Reference value :  2.51044e-06
 Reference value :  2.51185e-06
 Reference value :  2.51315e-06
 Reference value :  2.51457e-06
 Reference value :  2.51596e-06
 Reference value :  2.51760e-06
 Reference value :  2.52088e-06
 Reference value :  2.52589e-06
 Reference value :  2.53591e-06
 Reference value :  2.55596e-06
 Reference value :  2.59606e-06
 Reference value :  2.66043e-06
 Reference value :  2.72201e-06
 Reference value :  2.75010e-06
 Reference value :  2.75011e-06
 Reference value :  2.75013e-06
 Reference value :  2.75017e-06
 Reference value :  2.75020e-06
 Reference value :  2.75020e-06
 Reference value :  2.75020e-06
 Reference value :  2.75021e-06
 Reference value :  2.75021e-06
 Reference value :  2.75022e-06
 Reference value :  2.75025e-06
 Reference value :  2.75029e-06
 Reference value :  2.75039e-06
 Reference value :  2.75057e-06
 Reference value :  2.75090e-06
 Reference value :  2.75139e-06
 Reference value :  2.75202e-06
 Reference value :  2.75260e-06
 Reference value :  2.75328e-06
 Reference value :  2.75413e-06
 Reference value :  2.75473e-06
 Reference value :  2.75543e-06
 Reference value :  2.75612e-06
 Reference value :  2.75684e-06
 Reference value :  2.75779e-06
 Reference value :  2.75882e-06
 Reference value :  2.76090e-06
 Reference value :  2.76306e-06
 Reference value :  2.76680e-06
 Reference value :  2.77153e-06
 Reference value :  2.78099e-06
 Reference value :  2.79990e-06
 Reference value :  2.83693e-06
 Reference value :  2.89274e-06
 Reference value :  2.99554e-06
 Reference value :  3.00000e-06
 Reference value :  3.00001e-06
 Reference value :  3.00003e-06
 Reference value :  3.00007e-06
 Reference value :  3.00010e-06
 Reference value :  3.00010e-06
 Reference value :  3.00011e-06
 Reference value :  3.00013e-06
 Reference value :  3.00016e-06
 Reference value :  3.00023e-06
 Reference value :  3.00037e-06
 Reference value :  3.00054e-06
 Reference value :  3.00090e-06
 Reference value :  3.00140e-06
 Reference value :  3.00191e-06
 Reference value :  3.00245e-06
 Reference value :  3.00311e-06
 Reference value :  3.00378e-06
 Reference value :  3.00456e-06
 Reference value :  3.00522e-06
 Reference value :  3.00593e-06
 Reference value :  3.00682e-06
 Reference value :  3.00760e-06
 Reference value :  3.00841e-06
 Reference value :  3.00949e-06
 Reference value :  3.01062e-06
 Reference value :  3.01262e-06
 Reference value :  3.01504e-06
 Reference value :  3.01690e-06
 Reference value :  3.01895e-06
 Reference value :  3.02044e-06
 Reference value :  3.02207e-06
 Reference value :  3.02365e-06
 Reference value :  3.02527e-06
 Reference value :  3.02721e-06
 Reference value :  3.03000e-06
 Reference value :  3.03296e-06
 Reference value :  3.03637e-06
 Reference value :  3.04014e-06
 Reference value :  3.04310e-06
 Reference value :  3.04693e-06
 Reference value :  3.04955e-06
 Reference value :  3.05201e-06
 Reference value :  3.05451e-06
 Reference value :  3.05728e-06
 Reference value :  3.06055e-06
 Reference value :  3.06454e-06
 Reference value :  3.06967e-06
 Reference value :  3.07638e-06
 Reference value :  3.08287e-06
 Reference value :  3.09051e-06
 Reference value :  3.10492e-06
 Reference value :  3.12027e-06
 Reference value :  3.14600e-06
 Reference value :  3.18039e-06
 Reference value :  3.21899e-06
 Reference value :  3.25010e-06
 Reference value :  3.25011e-06
 Reference value :  3.25013e-06
 Reference value :  3.25017e-06
 Reference value :  3.25020e-06
 Reference value :  3.25020e-06
 Reference value :  3.25020e-06
 Reference value :  3.25021e-06
 Reference value :  3.25021e-06
 Reference value :  3.25022e-06
 Reference value :  3.25025e-06
 Reference value :  3.25029e-06
 Reference value :  3.25039e-06
 Reference value :  3.25057e-06
 Reference value :  3.25090e-06
 Reference value :  3.25139e-06
 Reference value :  3.25202e-06
 Reference value :  3.25260e-06
 Reference value :  3.25328e-06
 Reference value :  3.25412e-06
 Reference value :  3.25472e-06
 Reference value :  3.25540e-06
 Reference value :  3.25624e-06
 Reference value :  3.25721e-06
 Reference value :  3.25821e-06
 Reference value :  3.26020e-06
 Reference value :  3.26210e-06
 Reference value :  3.26527e-06
 Reference value :  3.26911e-06
 Reference value :  3.27680e-06
 Reference value :  3.29217e-06
 Reference value :  3.32292e-06
 Reference value :  3.38440e-06
 Reference value :  3.50000e-06
 Reference value :  3.50001e-06
 Reference value :  3.50003e-06
 Reference value :  3.50007e-06
 Reference value :  3.50010e-06
 Reference value :  3.50010e-06
 Reference value :  3.50011e-06
 Reference value :  3.50013e-06
 Reference value :  3.50016e-06
 Reference value :  3.50023e-06
 Reference value :  3.50037e-06
 Reference value :  3.50054e-06
 Reference value :  3.50090e-06
 Reference value :  3.50140e-06
 Reference value :  3.50191e-06
 Reference value :  3.50242e-06
 Reference value :  3.50304e-06
 Reference value :  3.50370e-06
 Reference value :  3.50456e-06
 Reference value :  3.50535e-06
 Reference value :  3.50629e-06
 Reference value :  3.50742e-06
 Reference value :  3.50872e-06
 Reference value :  3.50987e-06
 Reference value :  3.51106e-06
 Reference value :  3.51249e-06
 Reference value :  3.51408e-06
 Reference value :  3.51569e-06
 Reference value :  3.51757e-06
 Reference value :  3.52103e-06
 Reference value :  3.52604e-06
 Reference value :  3.53576e-06
 Reference value :  3.55414e-06
 Reference value :  3.58821e-06
 Reference value :  3.65635e-06
 Reference value :  3.75010e-06
 Reference value :  3.75011e-06
 Reference value :  3.75013e-06
 Reference value :  3.75017e-06
 Reference value :  3.75020e-06
 Reference value :  3.75020e-06
 Reference value :  3.75020e-06
 Reference value :  3.75021e-06
 Reference value :  3.75021e-06
 Reference value :  3.75022e-06
 Reference value :  3.75025e-06
 Reference value :  3.75029e-06
 Reference value :  3.75039e-06
 Reference value :  3.75058e-06
 Reference value :  3.75091e-06
 Reference value :  3.75140e-06
 Reference value :  3.75198e-06
 Reference value :  3.75258e-06
 Reference value :  3.75322e-06
 Reference value :  3.75407e-06
 Reference value :  3.75468e-06
 Reference value :  3.75540e-06
 Reference value :  3.75605e-06
 Reference value :  3.75677e-06
 Reference value :  3.75767e-06
 Reference value :  3.75868e-06
 Reference value :  3.75965e-06
 Reference value :  3.76120e-06
 Reference value :  3.76278e-06
 Reference value :  3.76510e-06
 Reference value :  3.76785e-06
 Reference value :  3.77206e-06
 Reference value :  3.78046e-06
 Reference value :  3.79303e-06
 Reference value :  3.81817e-06
 Reference value :  3.86845e-06
 Reference value :  3.96901e-06
 Reference value :  4.00000e-06
 Reference value :  4.00001e-06
 Reference value :  4.00003e-06
 Reference value :  4.00007e-06
 Reference value :  4.00010e-06
 Reference value :  4.00010e-06
 Reference value :  4.00011e-06
 Reference value :  4.00013e-06
 Reference value :  4.00016e-06
 Reference value :  4.00023e-06
 Reference value :  4.00037e-06
 Reference value :  4.00054e-06
 Reference value :  4.00090e-06
 Reference value :  4.00139e-06
 Reference value :  4.00191e-06
 Reference value :  4.00245e-06
 Reference value :  4.00311e-06
 Reference value :  4.00377e-06
 Reference value :  4.00454e-06
 Reference value :  4.00517e-06
 Reference value :  4.00586e-06
 Reference value :  4.00654e-06
 Reference value :  4.00721e-06
 Reference value :  4.00793e-06
 Reference value :  4.00890e-06
 Reference value :  4.00988e-06
 Reference value :  4.01137e-06
 Reference value :  4.01256e-06
 Reference value :  4.01384e-06
 Reference value :  4.01513e-06
 Reference value :  4.01656e-06
 Reference value :  4.01794e-06
 Reference value :  4.01897e-06
 Reference value :  4.01999e-06
 Reference value :  4.02124e-06
 Reference value :  4.02240e-06
 Reference value :  4.02361e-06
 Reference value :  4.02504e-06
 Reference value :  4.02697e-06
 Reference value :  4.02909e-06
 Reference value :  4.03257e-06
 Reference value :  4.03850e-06
 Reference value :  4.04721e-06
 Reference value :  4.06291e-06
 Reference value :  4.08268e-06
 Reference value :  4.10555e-06
 Reference value :  4.12392e-06
 Reference value :  4.14493e-06
 Reference value :  4.17104e-06
 Reference value :  4.20050e-06
 Reference value :  4.25010e-06
 Reference value :  4.25011e-06
 Reference value :  4.25013e-06
 Reference value :  4.25017e-06
 Reference value :  4.25020e-06
 Reference value :  4.25020e-06
 Reference value :  4.25020e-06
 Reference value :  4.25021e-06
 Reference value :  4.25021e-06
 Reference value :  4.25022e-06
 Reference value :  4.25025e-06
 Reference value :  4.25029e-06
 Reference value :  4.25039e-06
 Reference value :  4.25057e-06
 Reference value :  4.25090e-06
 Reference value :  4.25139e-06
 Reference value :  4.25202e-06
 Reference value :  4.25260e-06
 Reference value :  4.25328e-06
 Reference value :  4.25412e-06
 Reference value :  4.25472e-06
 Reference value :  4.25542e-06
 Reference value :  4.25629e-06
 Reference value :  4.25717e-06
 Reference value :  4.25824e-06
 Reference value :  4.26011e-06
 Reference value :  4.26204e-06
 Reference value :  4.26511e-06
 Reference value :  4.26897e-06
 Reference value :  4.27671e-06
 Reference value :  4.29218e-06
 Reference value :  4.32311e-06
 Reference value :  4.38499e-06
 Reference value :  4.50000e-06
 Reference value :  4.50001e-06
 Reference value :  4.50003e-06
 Reference value :  4.50007e-06
 Reference value :  4.50010e-06
 Reference value :  4.50010e-06
 Reference value :  4.50011e-06
 Reference value :  4.50013e-06
 Reference value :  4.50016e-06
 Reference value :  4.50023e-06
 Reference value :  4.50037e-06
 Reference value :  4.50054e-06
 Reference value :  4.50090e-06
 Reference value :  4.50139e-06
 Reference value :  4.50191e-06
 Reference value :  4.50242e-06
 Reference value :  4.50304e-06
 Reference value :  4.50369e-06
 Reference value :  4.50456e-06
 Reference value :  4.50534e-06
 Reference value :  4.50628e-06
 Reference value :  4.50743e-06
 Reference value :  4.50870e-06
 Reference value :  4.50990e-06
 Reference value :  4.51112e-06
 Reference value :  4.51229e-06
 Reference value :  4.51361e-06
 Reference value :  4.51493e-06
 Reference value :  4.51644e-06
 Reference value :  4.51946e-06
 Reference value :  4.52550e-06
 Reference value :  4.53608e-06
 Reference value :  4.55722e-06
 Reference value :  4.59951e-06
 Reference value :  4.68409e-06
 Reference value :  4.75010e-06
 Reference value :  4.75011e-06
 Reference value :  4.75013e-06
 Reference value :  4.75017e-06
 Reference value :  4.75020e-06
 Reference value :  4.75020e-06
 Reference value :  4.75020e-06
 Reference value :  4.75021e-06
 Reference value :  4.75021e-06
 Reference value :  4.75022e-06
 Reference value :  4.75025e-06
 Reference value :  4.75029e-06
 Reference value :  4.75039e-06
 Reference value :  4.75058e-06
 Reference value :  4.75091e-06
 Reference value :  4.75140e-06
 Reference value :  4.75204e-06
 Reference value :  4.75261e-06
 Reference value :  4.75330e-06
 Reference value :  4.75415e-06
 Reference value :  4.75476e-06
 Reference value :  4.75546e-06
 Reference value :  4.75615e-06
 Reference value :  4.75689e-06
 Reference value :  4.75786e-06
 Reference value :  4.75891e-06
 Reference value :  4.76015e-06
 Reference value :  4.76155e-06
 Reference value :  4.76353e-06
 Reference value :  4.76561e-06
 Reference value :  4.76918e-06
 Reference value :  4.77385e-06
 Reference value :  4.78319e-06
 Reference value :  4.80186e-06
 Reference value :  4.83921e-06
 Reference value :  4.91390e-06
 Reference value :  5.00000e-06
 Reference value :  5.00001e-06
 Reference value :  5.00003e-06
 Reference value :  5.00007e-06
 Reference value :  5.00010e-06
 Reference value :  5.00010e-06
 Reference value :  5.00011e-06
 Reference value :  5.00013e-06
 Reference value :  5.00016e-06
 Reference value :  5.00023e-06
 Reference value :  5.00036e-06
 Reference value :  5.00054e-06
 Reference value :  5.00089e-06
 Reference value :  5.00138e-06
 Reference value :  5.00189e-06
 Reference value :  5.00243e-06
 Reference value :  5.00309e-06
 Reference value :  5.00374e-06
 Reference value :  5.00451e-06
 Reference value :  5.00514e-06
 Reference value :  5.00584e-06
 Reference value :  5.00652e-06
 Reference value :  5.00720e-06
 Reference value :  5.00792e-06
 Reference value :  5.00898e-06
 Reference value :  5.00994e-06
 Reference value :  5.01179e-06
 Reference value :  5.01294e-06
 Reference value :  5.01429e-06
 Reference value :  5.01560e-06
 Reference value :  5.01715e-06
 Reference value :  5.01864e-06
 Reference value :  5.02002e-06
 Reference value :  5.02153e-06
 Reference value :  5.02288e-06
 Reference value :  5.02428e-06
 Reference value :  5.02594e-06
 Reference value :  5.02809e-06
 Reference value :  5.03039e-06
 Reference value :  5.03431e-06
 Reference value :  5.03984e-06
 Reference value :  5.04873e-06
 Reference value :  5.06363e-06
 Reference value :  5.07893e-06
 Reference value :  5.09272e-06
 Reference value :  5.11065e-06
 Reference value :  5.13035e-06
 Reference value :  5.15048e-06
 Reference value :  5.16294e-06
 Reference value :  5.18187e-06
 Reference value :  5.20340e-06
 Reference value :  5.24256e-06
 Reference value :  5.25010e-06
 Reference value :  5.25011e-06
 Reference value :  5.25013e-06
 Reference value :  5.25017e-06
 Reference value :  5.25020e-06
 Reference value :  5.25020e-06
 Reference value :  5.25020e-06
 Reference value :  5.25021e-06
 Reference value :  5.25021e-06
 Reference value :  5.25022e-06
 Reference value :  5.25025e-06
 Reference value :  5.25029e-06
 Reference value :  5.25039e-06
 Reference value :  5.25057e-06
 Reference value :  5.25090e-06
 Reference value :  5.25139e-06
 Reference value :  5.25201e-06
 Reference value :  5.25260e-06
 Reference value :  5.25328e-06
 Reference value :  5.25413e-06
 Reference value :  5.25473e-06
 Reference value :  5.25543e-06
 Reference value :  5.25631e-06
 Reference value :  5.25721e-06
 Reference value :  5.25827e-06
 Reference value :  5.26016e-06
 Reference value :  5.26209e-06
 Reference value :  5.26521e-06
 Reference value :  5.26910e-06
 Reference value :  5.27688e-06
 Reference value :  5.29244e-06
 Reference value :  5.32355e-06
 Reference value :  5.38578e-06
 Reference value :  5.50000e-06
 Reference value :  5.50001e-06
 Reference value :  5.50003e-06
 Reference value :  5.50007e-06
 Reference value :  5.50010e-06
 Reference value :  5.50010e-06
 Reference value :  5.50011e-06
 Reference value :  5.50013e-06
 Reference value :  5.50016e-06
 Reference value :  5.50023e-06
 Reference value :  5.50037e-06
 Reference value :  5.50054e-06
 Reference value :  5.50090e-06
 Reference value :  5.50140e-06
 Reference value :  5.50191e-06
 Reference value :  5.50242e-06
 Reference value :  5.50304e-06
 Reference value :  5.50370e-06
 Reference value :  5.50456e-06
 Reference value :  5.50538e-06
 Reference value :  5.50630e-06
 Reference value :  5.50761e-06
 Reference value :  5.50882e-06
 Reference value :  5.51017e-06
 Reference value :  5.51150e-06
 Reference value :  5.51282e-06
 Reference value :  5.51418e-06
 Reference value :  5.51572e-06
 Reference value :  5.51745e-06
 Reference value :  5.52056e-06
 Reference value :  5.52510e-06
 Reference value :  5.53374e-06
 Reference value :  5.54977e-06
 Reference value :  5.57947e-06
 Reference value :  5.63843e-06
 Reference value :  5.75010e-06
 Reference value :  5.75011e-06
 Reference value :  5.75013e-06
 Reference value :  5.75017e-06
 Reference value :  5.75020e-06
 Reference value :  5.75020e-06
 Reference value :  5.75020e-06
 Reference value :  5.75021e-06
 Reference value :  5.75021e-06
 Reference value :  5.75022e-06
 Reference value :  5.75025e-06
 Reference value :  5.75029e-06
 Reference value :  5.75039e-06
 Reference value :  5.75058e-06
 Reference value :  5.75091e-06
 Reference value :  5.75140e-06
 Reference value :  5.75204e-06
 Reference value :  5.75261e-06
 Reference value :  5.75330e-06
 Reference value :  5.75414e-06
 Reference value :  5.75475e-06
 Reference value :  5.75545e-06
 Reference value :  5.75614e-06
 Reference value :  5.75686e-06
 Reference value :  5.75783e-06
 Reference value :  5.75887e-06
 Reference value :  5.76005e-06
 Reference value :  5.76147e-06
 Reference value :  5.76355e-06
 Reference value :  5.76559e-06
 Reference value :  5.76916e-06
 Reference value :  5.77366e-06
 Reference value :  5.78265e-06
 Reference value :  5.80063e-06
 Reference value :  5.83659e-06
 Reference value :  5.90851e-06
 Reference value :  6.00000e-06
 Reference value :  6.00001e-06
 Reference value :  6.00003e-06
 Reference value :  6.00007e-06
 Reference value :  6.00010e-06
 Reference value :  6.00010e-06
 Reference value :  6.00011e-06
 Reference value :  6.00013e-06
 Reference value :  6.00016e-06
 Reference value :  6.00023e-06
 Reference value :  6.00036e-06
 Reference value :  6.00054e-06
 Reference value :  6.00089e-06
 Reference value :  6.00139e-06
 Reference value :  6.00190e-06
 Reference value :  6.00243e-06
 Reference value :  6.00309e-06
 Reference value :  6.00375e-06
 Reference value :  6.00452e-06
 Reference value :  6.00515e-06
 Reference value :  6.00584e-06
 Reference value :  6.00654e-06
 Reference value :  6.00726e-06
 Reference value :  6.00801e-06
 Reference value :  6.00908e-06
 Reference value :  6.01014e-06
 Reference value :  6.01205e-06
 Reference value :  6.01326e-06
 Reference value :  6.01466e-06
 Reference value :  6.01601e-06
 Reference value :  6.01754e-06
 Reference value :  6.01894e-06
 Reference value :  6.02041e-06
 Reference value :  6.02185e-06
 Reference value :  6.02329e-06
 Reference value :  6.02471e-06
 Reference value :  6.02640e-06
 Reference value :  6.02869e-06
 Reference value :  6.03115e-06
 Reference value :  6.03579e-06
 Reference value :  6.04212e-06
 Reference value :  6.05120e-06
 Reference value :  6.06047e-06
 Reference value :  6.07580e-06
 Reference value :  6.10141e-06
 Reference value :  6.13255e-06
 Reference value :  6.18678e-06
 Reference value :  6.25010e-06
 Reference value :  6.25011e-06
 Reference value :  6.25013e-06
 Reference value :  6.25017e-06
 Reference value :  6.25020e-06
 Reference value :  6.25020e-06
 Reference value :  6.25020e-06
 Reference value :  6.25021e-06
 Reference value :  6.25021e-06
 Reference value :  6.25022e-06
 Reference value :  6.25025e-06
 Reference value :  6.25029e-06
 Reference value :  6.25039e-06
 Reference value :  6.25058e-06
 Reference value :  6.25091e-06
 Reference value :  6.25141e-06
 Reference value :  6.25204e-06
 Reference value :  6.25262e-06
 Reference value :  6.25330e-06
 Reference value :  6.25414e-06
 Reference value :  6.25474e-06
 Reference value :  6.25543e-06
 Reference value :  6.25628e-06
 Reference value :  6.25721e-06
 Reference value :  6.25824e-06
 Reference value :  6.26029e-06
 Reference value :  6.26219e-06
 Reference value :  6.26543e-06
 Reference value :  6.26929e-06
 Reference value :  6.27701e-06
 Reference value :  6.29246e-06
 Reference value :  6.32336e-06
 Reference value :  6.38514e-06
 Reference value :  6.50000e-06
 Reference value :  6.50001e-06
 Reference value :  6.50003e-06
 Reference value :  6.50007e-06
 Reference value :  6.50010e-06
 Reference value :  6.50010e-06
 Reference value :  6.50011e-06
 Reference value :  6.50013e-06
 Reference value :  6.50016e-06
 Reference value :  6.50023e-06
 Reference value :  6.50037e-06
 Reference value :  6.50054e-06
 Reference value :  6.50090e-06
 Reference value :  6.50140e-06
 Reference value :  6.50191e-06
 Reference value :  6.50242e-06
 Reference value :  6.50304e-06
 Reference value :  6.50370e-06
 Reference value :  6.50456e-06
 Reference value :  6.50535e-06
 Reference value :  6.50628e-06
 Reference value :  6.50743e-06
 Reference value :  6.50873e-06
 Reference value :  6.50988e-06
 Reference value :  6.51108e-06
 Reference value :  6.51219e-06
 Reference value :  6.51350e-06
 Reference value :  6.51482e-06
 Reference value :  6.51630e-06
 Reference value :  6.51928e-06
 Reference value :  6.52523e-06
 Reference value :  6.53559e-06
 Reference value :  6.55630e-06
 Reference value :  6.59772e-06
 Reference value :  6.68058e-06
 Reference value :  6.75010e-06
 Reference value :  6.75011e-06
 Reference value :  6.75013e-06
 Reference value :  6.75017e-06
 Reference value :  6.75020e-06
 Reference value :  6.75020e-06
 Reference value :  6.75020e-06
 Reference value :  6.75021e-06
 Reference value :  6.75021e-06
 Reference value :  6.75022e-06
 Reference value :  6.75025e-06
 Reference value :  6.75029e-06
 Reference value :  6.75039e-06
 Reference value :  6.75058e-06
 Reference value :  6.75091e-06
 Reference value :  6.75141e-06
 Reference value :  6.75204e-06
 Reference value :  6.75262e-06
 Reference value :  6.75330e-06
 Reference value :  6.75415e-06
 Reference value :  6.75476e-06
 Reference value :  6.75545e-06
 Reference value :  6.75615e-06
 Reference value :  6.75688e-06
 Reference value :  6.75786e-06
 Reference value :  6.75892e-06
 Reference value :  6.76008e-06
 Reference value :  6.76152e-06
 Reference value :  6.76363e-06
 Reference value :  6.76565e-06
 Reference value :  6.76930e-06
 Reference value :  6.77386e-06
 Reference value :  6.78298e-06
 Reference value :  6.80122e-06
 Reference value :  6.83770e-06
 Reference value :  6.91065e-06
 Reference value :  7.00000e-06
 Reference value :  7.00001e-06
 Reference value :  7.00003e-06
 Reference value :  7.00007e-06
 Reference value :  7.00010e-06
 Reference value :  7.00010e-06
 Reference value :  7.00011e-06
 Reference value :  7.00013e-06
 Reference value :  7.00016e-06
 Reference value :  7.00023e-06
 Reference value :  7.00036e-06
 Reference value :  7.00054e-06
 Reference value :  7.00089e-06
 Reference value :  7.00139e-06
 Reference value :  7.00190e-06
 Reference value :  7.00243e-06
 Reference value :  7.00309e-06
 Reference value :  7.00375e-06
 Reference value :  7.00452e-06
 Reference value :  7.00515e-06
 Reference value :  7.00584e-06
 Reference value :  7.00653e-06
 Reference value :  7.00722e-06
 Reference value :  7.00794e-06
 Reference value :  7.00900e-06
 Reference value :  7.01000e-06
 Reference value :  7.01151e-06
 Reference value :  7.01299e-06
 Reference value :  7.01436e-06
 Reference value :  7.01585e-06
 Reference value :  7.01745e-06
 Reference value :  7.01929e-06
 Reference value :  7.02052e-06
 Reference value :  7.02185e-06
 Reference value :  7.02317e-06
 Reference value :  7.02445e-06
 Reference value :  7.02602e-06
 Reference value :  7.02836e-06
 Reference value :  7.03051e-06
 Reference value :  7.03471e-06
 Reference value :  7.04053e-06
 Reference value :  7.04867e-06
 Reference value :  7.05979e-06
 Reference value :  7.08203e-06
 Reference value :  7.11765e-06
 Reference value :  7.16958e-06
 Reference value :  7.25010e-06
 Reference value :  7.25011e-06
 Reference value :  7.25013e-06
 Reference value :  7.25017e-06
 Reference value :  7.25020e-06
 Reference value :  7.25020e-06
 Reference value :  7.25020e-06
 Reference value :  7.25021e-06
 Reference value :  7.25021e-06
 Reference value :  7.25022e-06
 Reference value :  7.25025e-06
 Reference value :  7.25029e-06
 Reference value :  7.25039e-06
 Reference value :  7.25057e-06
 Reference value :  7.25091e-06
 Reference value :  7.25140e-06
 Reference value :  7.25203e-06
 Reference value :  7.25261e-06
 Reference value :  7.25329e-06
 Reference value :  7.25413e-06
 Reference value :  7.25472e-06
 Reference value :  7.25541e-06
 Reference value :  7.25626e-06
 Reference value :  7.25721e-06
 Reference value :  7.25822e-06
 Reference value :  7.26024e-06
 Reference value :  7.26213e-06
 Reference value :  7.26532e-06
 Reference value :  7.26917e-06
 Reference value :  7.27685e-06
 Reference value :  7.29223e-06
 Reference value :  7.32299e-06
 Reference value :  7.38450e-06
 Reference value :  7.50000e-06
 Reference value :  7.50001e-06
 Reference value :  7.50003e-06
 Reference value :  7.50007e-06
 Reference value :  7.50010e-06
 Reference value :  7.50010e-06
 Reference value :  7.50011e-06
 Reference value :  7.50013e-06
 Reference value :  7.50016e-06
 Reference value :  7.50023e-06
 Reference value :  7.50037e-06
 Reference value :  7.50054e-06
 Reference value :  7.50090e-06
 Reference value :  7.50142e-06
 Reference value :  7.50194e-06
 Reference value :  7.50248e-06
 Reference value :  7.50310e-06
 Reference value :  7.50379e-06
 Reference value :  7.50457e-06
 Reference value :  7.50545e-06
 Reference value :  7.50635e-06
 Reference value :  7.50759e-06
 Reference value :  7.50890e-06
 Reference value :  7.51015e-06
 Reference value :  7.51142e-06
 Reference value :  7.51260e-06
 Reference value :  7.51394e-06
 Reference value :  7.51526e-06
 Reference value :  7.51679e-06
 Reference value :  7.51985e-06
 Reference value :  7.52559e-06
 Reference value :  7.53637e-06
 Reference value :  7.55791e-06
 Reference value :  7.60101e-06
 Reference value :  7.68720e-06
 Reference value :  7.75010e-06
 Reference value :  7.75011e-06
 Reference value :  7.75013e-06
 Reference value :  7.75017e-06
 Reference value :  7.75020e-06
 Reference value :  7.75020e-06
 Reference value :  7.75020e-06
 Reference value :  7.75021e-06
 Reference value :  7.75021e-06
 Reference value :  7.75022e-06
 Reference value :  7.75025e-06
 Reference value :  7.75029e-06
 Reference value :  7.75039e-06
 Reference value :  7.75058e-06
 Reference value :  7.75092e-06
 Reference value :  7.75141e-06
 Reference value :  7.75198e-06
 Reference value :  7.75258e-06
 Reference value :  7.75322e-06
 Reference value :  7.75406e-06
 Reference value :  7.75467e-06
 Reference value :  7.75537e-06
 Reference value :  7.75603e-06
 Reference value :  7.75675e-06
 Reference value :  7.75765e-06
 Reference value :  7.75866e-06
 Reference value :  7.75969e-06
 Reference value :  7.76119e-06
 Reference value :  7.76286e-06
 Reference value :  7.76516e-06
 Reference value :  7.76802e-06
 Reference value :  7.77228e-06
 Reference value :  7.78081e-06
 Reference value :  7.79776e-06
 Reference value :  7.83166e-06
 Reference value :  7.89947e-06
 Reference value :  8.00000e-06
 Reference value :  8.00001e-06
 Reference value :  8.00003e-06
 Reference value :  8.00007e-06
 Reference value :  8.00010e-06
 Reference value :  8.00010e-06
 Reference value :  8.00011e-06
 Reference value :  8.00013e-06
 Reference value :  8.00016e-06
 Reference value :  8.00023e-06
 Reference value :  8.00036e-06
 Reference value :  8.00054e-06
 Reference value :  8.00090e-06
 Reference value :  8.00141e-06
 Reference value :  8.00193e-06
 Reference value :  8.00248e-06
 Reference value :  8.00314e-06
 Reference value :  8.00383e-06
 Reference value :  8.00461e-06
 Reference value :  8.00525e-06
 Reference value :  8.00594e-06
 Reference value :  8.00661e-06
 Reference value :  8.00738e-06
 Reference value :  8.00810e-06
 Reference value :  8.00920e-06
 Reference value :  8.01025e-06
 Reference value :  8.01192e-06
 Reference value :  8.01319e-06
 Reference value :  8.01454e-06
 Reference value :  8.01594e-06
 Reference value :  8.01750e-06
 Reference value :  8.01915e-06
 Reference value :  8.02133e-06
 Reference value :  8.02416e-06
 Reference value :  8.02696e-06
 Reference value :  8.03090e-06
 Reference value :  8.03777e-06
 Reference value :  8.04770e-06
 Reference value :  8.05774e-06
 Reference value :  8.07337e-06
 Reference value :  8.08871e-06
 Reference value :  8.09991e-06
 Reference value :  8.11038e-06
 Reference value :  8.12588e-06
 Reference value :  8.14595e-06
 Reference value :  8.17693e-06
 Reference value :  8.20866e-06
 Reference value :  8.24165e-06
 Reference value :  8.25010e-06
 Reference value :  8.25011e-06
 Reference value :  8.25013e-06
 Reference value :  8.25017e-06
 Reference value :  8.25020e-06
 Reference value :  8.25020e-06
 Reference value :  8.25020e-06
 Reference value :  8.25021e-06
 Reference value :  8.25021e-06
 Reference value :  8.25022e-06
 Reference value :  8.25025e-06
 Reference value :  8.25029e-06
 Reference value :  8.25039e-06
 Reference value :  8.25057e-06
 Reference value :  8.25095e-06
 Reference value :  8.25141e-06
 Reference value :  8.25198e-06
 Reference value :  8.25258e-06
 Reference value :  8.25321e-06
 Reference value :  8.25405e-06
 Reference value :  8.25495e-06
 Reference value :  8.25613e-06
 Reference value :  8.25753e-06
 Reference value :  8.25885e-06
 Reference value :  8.26111e-06
 Reference value :  8.26351e-06
 Reference value :  8.26729e-06
 Reference value :  8.27292e-06
 Reference value :  8.28418e-06
 Reference value :  8.30671e-06
 Reference value :  8.35149e-06
 Reference value :  8.44106e-06
 Reference value :  8.50000e-06
 Reference value :  8.50000e-06
 Reference value :  8.50000e-06
 Reference value :  8.50000e-06
 Reference value :  8.50000e-06
 Reference value :  8.50000e-06
 Reference value :  8.50000e-06
 Reference value :  8.50000e-06
 Reference value :  8.50000e-06
 Reference value :  8.50000e-06
 Reference value :  8.50001e-06
 Reference value :  8.50001e-06
 Reference value :  8.50002e-06
 Reference value :  8.50004e-06
 Reference value :  8.50008e-06
 Reference value :  8.50010e-06
 Reference value :  8.50010e-06
 Reference value :  8.50011e-06
 Reference value :  8.50012e-06
 Reference value :  8.50014e-06
 Reference value :  8.50018e-06
 Reference value :  8.50026e-06
 Reference value :  8.50043e-06
 Reference value :  8.50072e-06
 Reference value :  8.50121e-06
 Reference value :  8.50181e-06
 Reference value :  8.50247e-06
 Reference value :  8.50311e-06
 Reference value :  8.50379e-06
 Reference value :  8.50448e-06
 Reference value :  8.50521e-06
 Reference value :  8.50619e-06
 Reference value :  8.50721e-06
 Reference value :  8.50925e-06
 Reference value :  8.51054e-06
 Reference value :  8.51189e-06
 Reference value :  8.51348e-06
 Reference value :  8.51523e-06
 Reference value :  8.51762e-06
 Reference value :  8.52125e-06
 Reference value :  8.52564e-06
 Reference value :  8.53051e-06
 Reference value :  8.53388e-06
 Reference value :  8.53679e-06
 Reference value :  8.53951e-06
 Reference value :  8.54192e-06
 Reference value :  8.54384e-06
 Reference value :  8.54590e-06
 Reference value :  8.54788e-06
 Reference value :  8.54998e-06
 Reference value :  8.55309e-06
 Reference value :  8.55608e-06
 Reference value :  8.55944e-06
 Reference value :  8.56123e-06
 Reference value :  8.56298e-06
 Reference value :  8.56493e-06
 Reference value :  8.56705e-06
 Reference value :  8.57048e-06
 Reference value :  8.57518e-06
 Reference value :  8.57943e-06
 Reference value :  8.58640e-06
 Reference value :  8.59367e-06
 Reference value :  8.60756e-06
 Reference value :  8.63005e-06
 Reference value :  8.66801e-06
 Reference value :  8.69681e-06
 Reference value :  8.72434e-06
 Reference value :  8.75010e-06
 Reference value :  8.75011e-06
 Reference value :  8.75013e-06
 Reference value :  8.75017e-06
 Reference value :  8.75020e-06
 Reference value :  8.75020e-06
 Reference value :  8.75020e-06
 Reference value :  8.75021e-06
 Reference value :  8.75021e-06
 Reference value :  8.75022e-06
 Reference value :  8.75025e-06
 Reference value :  8.75029e-06
 Reference value :  8.75039e-06
 Reference value :  8.75057e-06
 Reference value :  8.75094e-06
 Reference value :  8.75142e-06
 Reference value :  8.75198e-06
 Reference value :  8.75258e-06
 Reference value :  8.75323e-06
 Reference value :  8.75405e-06
 Reference value :  8.75469e-06
 Reference value :  8.75543e-06
 Reference value :  8.75622e-06
 Reference value :  8.75704e-06
 Reference value :  8.75812e-06
 Reference value :  8.75984e-06
 Reference value :  8.76175e-06
 Reference value :  8.76461e-06
 Reference value :  8.76843e-06
 Reference value :  8.77607e-06
 Reference value :  8.79135e-06
 Reference value :  8.82053e-06
 Reference value :  8.87890e-06
 Reference value :  8.95027e-06
 Reference value :  9.00000e-06
 Reference value :  9.00001e-06
 Reference value :  9.00003e-06
 Reference value :  9.00007e-06
 Reference value :  9.00010e-06
 Reference value :  9.00010e-06
 Reference value :  9.00011e-06
 Reference value :  9.00013e-06
 Reference value :  9.00016e-06
 Reference value :  9.00023e-06
 Reference value :  9.00036e-06
 Reference value :  9.00055e-06
 Reference value :  9.00092e-06
 Reference value :  9.00145e-06
 Reference value :  9.00198e-06
 Reference value :  9.00255e-06
 Reference value :  9.00322e-06
 Reference value :  9.00397e-06
 Reference value :  9.00467e-06
 Reference value :  9.00550e-06
 Reference value :  9.00645e-06
 Reference value :  9.00749e-06
 Reference value :  9.00905e-06
 Reference value :  9.01079e-06
 Reference value :  9.01262e-06
 Reference value :  9.01456e-06
 Reference value :  9.01624e-06
 Reference value :  9.01802e-06
 Reference value :  9.02021e-06
 Reference value :  9.02257e-06
 Reference value :  9.02646e-06
 Reference value :  9.02917e-06
 Reference value :  9.03214e-06
 Reference value :  9.03549e-06
 Reference value :  9.03920e-06
 Reference value :  9.04498e-06
 Reference value :  9.05252e-06
 Reference value :  9.06023e-06
 Reference value :  9.06769e-06
 Reference value :  9.07611e-06
 Reference value :  9.09140e-06
 Reference value :  9.11267e-06
 Reference value :  9.15290e-06
 Reference value :  9.22051e-06
 Reference value :  9.25010e-06
 Reference value :  9.25011e-06
 Reference value :  9.25013e-06
 Reference value :  9.25017e-06
 Reference value :  9.25020e-06
 Reference value :  9.25020e-06
 Reference value :  9.25020e-06
 Reference value :  9.25021e-06
 Reference value :  9.25021e-06
 Reference value :  9.25022e-06
 Reference value :  9.25025e-06
 Reference value :  9.25029e-06
 Reference value :  9.25039e-06
 Reference value :  9.25057e-06
 Reference value :  9.25094e-06
 Reference value :  9.25142e-06
 Reference value :  9.25198e-06
 Reference value :  9.25259e-06
 Reference value :  9.25324e-06
 Reference value :  9.25411e-06
 Reference value :  9.25473e-06
 Reference value :  9.25546e-06
 Reference value :  9.25613e-06
 Reference value :  9.25687e-06
 Reference value :  9.25778e-06
 Reference value :  9.25867e-06
 Reference value :  9.25959e-06
 Reference value :  9.26082e-06
 Reference value :  9.26212e-06
 Reference value :  9.26433e-06
 Reference value :  9.26662e-06
 Reference value :  9.27039e-06
 Reference value :  9.27570e-06
 Reference value :  9.28330e-06
 Reference value :  9.29507e-06
 Reference value :  9.31192e-06
 Reference value :  9.33761e-06
 Reference value :  9.38359e-06
 Reference value :  9.45916e-06
 Reference value :  9.50000e-06
 Reference value :  9.50001e-06
 Reference value :  9.50003e-06
 Reference value :  9.50007e-06
 Reference value :  9.50010e-06
 Reference value :  9.50010e-06
 Reference value :  9.50011e-06
 Reference value :  9.50013e-06
 Reference value :  9.50016e-06
 Reference value :  9.50023e-06
 Reference value :  9.50037e-06
 Reference value :  9.50055e-06
 Reference value :  9.50093e-06
 Reference value :  9.50151e-06
 Reference value :  9.50204e-06
 Reference value :  9.50261e-06
 Reference value :  9.50329e-06
 Reference value :  9.50407e-06
 Reference value :  9.50484e-06
 Reference value :  9.50553e-06
 Reference value :  9.50625e-06
 Reference value :  9.50696e-06
 Reference value :  9.50774e-06
 Reference value :  9.50853e-06
 Reference value :  9.50963e-06
 Reference value :  9.51103e-06
 Reference value :  9.51321e-06
 Reference value :  9.51469e-06
 Reference value :  9.51633e-06
 Reference value :  9.51798e-06
 Reference value :  9.51932e-06
 Reference value :  9.52037e-06
 Reference value :  9.52151e-06
 Reference value :  9.52283e-06
 Reference value :  9.52412e-06
 Reference value :  9.52556e-06
 Reference value :  9.52760e-06
 Reference value :  9.52984e-06
 Reference value :  9.53376e-06
 Reference value :  9.53955e-06
 Reference value :  9.54838e-06
 Reference value :  9.56301e-06
 Reference value :  9.58874e-06
 Reference value :  9.63054e-06
 Reference value :  9.67099e-06
 Reference value :  9.70086e-06
 Reference value :  9.72359e-06
 Reference value :  9.74441e-06
 Reference value :  9.75010e-06
 Reference value :  9.75011e-06
 Reference value :  9.75013e-06
 Reference value :  9.75017e-06
 Reference value :  9.75020e-06
 Reference value :  9.75020e-06
 Reference value :  9.75020e-06
 Reference value :  9.75021e-06
 Reference value :  9.75021e-06
 Reference value :  9.75022e-06
 Reference value :  9.75025e-06
 Reference value :  9.75029e-06
 Reference value :  9.75039e-06
 Reference value :  9.75057e-06
 Reference value :  9.75090e-06
 Reference value :  9.75140e-06
 Reference value :  9.75202e-06
 Reference value :  9.75261e-06
 Reference value :  9.75328e-06
 Reference value :  9.75411e-06
 Reference value :  9.75472e-06
 Reference value :  9.75543e-06
 Reference value :  9.75625e-06
 Reference value :  9.75709e-06
 Reference value :  9.75819e-06
 Reference value :  9.75999e-06
 Reference value :  9.76192e-06
 Reference value :  9.76488e-06
 Reference value :  9.76874e-06
 Reference value :  9.77646e-06
 Reference value :  9.79189e-06
 Reference value :  9.82277e-06
 Reference value :  9.88452e-06
 Reference value :  9.97571e-06
 Reference value :  1.00000e-05
 Reference value :  1.00000e-05
 Reference value :  1.00000e-05
 Reference value :  1.00001e-05
 Reference value :  1.00001e-05
 Reference value :  1.00001e-05
 Reference value :  1.00001e-05
 Reference value :  1.00001e-05
 Reference value :  1.00002e-05
 Reference value :  1.00002e-05
 Reference value :  1.00004e-05
 Reference value :  1.00005e-05
 Reference value :  1.00009e-05
 Reference value :  1.00014e-05
 Reference value :  1.00019e-05
 Reference value :  1.00024e-05
 Reference value :  1.00031e-05
 Reference value :  1.00038e-05
 Reference value :  1.00045e-05
 Reference value :  1.00054e-05
 Reference value :  1.00062e-05
 Reference value :  1.00075e-05
 Reference value :  1.00088e-05
 Reference value :  1.00101e-05
 Reference value :  1.00113e-05
 Reference value :  1.00130e-05
 Reference value :  1.00146e-05
 Reference value :  1.00164e-05
 Reference value :  1.00183e-05
 Reference value :  1.00222e-05
 Reference value :  1.00284e-05
 Reference value :  1.00398e-05
 Reference value :  1.00627e-05
 Reference value :  1.01053e-05
 Reference value :  1.01904e-05
 Reference value :  1.02501e-05
 Reference value :  1.02501e-05
 Reference value :  1.02501e-05
 Reference value :  1.02502e-05
 Reference value :  1.02502e-05
 Reference value :  1.02502e-05
 Reference value :  1.02502e-05
 Reference value :  1.02502e-05
 Reference value :  1.02502e-05
 Reference value :  1.02502e-05
 Reference value :  1.02502e-05
 Reference value :  1.02503e-05
 Reference value :  1.02504e-05
 Reference value :  1.02506e-05
 Reference value :  1.02509e-05
 Reference value :  1.02514e-05
 Reference value :  1.02520e-05
 Reference value :  1.02526e-05
 Reference value :  1.02532e-05
 Reference value :  1.02541e-05
 Reference value :  1.02547e-05
 Reference value :  1.02554e-05
 Reference value :  1.02560e-05
 Reference value :  1.02568e-05
 Reference value :  1.02577e-05
 Reference value :  1.02586e-05
 Reference value :  1.02606e-05
 Reference value :  1.02627e-05
 Reference value :  1.02663e-05
 Reference value :  1.02706e-05
 Reference value :  1.02793e-05
 Reference value :  1.02967e-05
 Reference value :  1.03315e-05
 Reference value :  1.04010e-05
 Reference value :  1.05000e-05
 Reference value :  1.05000e-05
 Reference value :  1.05000e-05
 Reference value :  1.05001e-05
 Reference value :  1.05001e-05
 Reference value :  1.05001e-05
 Reference value :  1.05001e-05
 Reference value :  1.05001e-05
 Reference value :  1.05002e-05
 Reference value :  1.05002e-05
 Reference value :  1.05004e-05
 Reference value :  1.05005e-05
 Reference value :  1.05009e-05
 Reference value :  1.05014e-05
 Reference value :  1.05019e-05
 Reference value :  1.05024e-05
 Reference value :  1.05031e-05
 Reference value :  1.05038e-05
 Reference value :  1.05045e-05
 Reference value :  1.05052e-05
 Reference value :  1.05059e-05
 Reference value :  1.05067e-05
 Reference value :  1.05075e-05
 Reference value :  1.05083e-05
 Reference value :  1.05093e-05
 Reference value :  1.05104e-05
 Reference value :  1.05123e-05
 Reference value :  1.05147e-05
 Reference value :  1.05166e-05
 Reference value :  1.05187e-05
 Reference value :  1.05202e-05
 Reference value :  1.05216e-05
 Reference value :  1.05228e-05
 Reference value :  1.05242e-05
 Reference value :  1.05257e-05
 Reference value :  1.05279e-05
 Reference value :  1.05300e-05
 Reference value :  1.05339e-05
 Reference value :  1.05395e-05
 Reference value :  1.05479e-05
 Reference value :  1.05621e-05
 Reference value :  1.05835e-05
 Reference value :  1.06170e-05
 Reference value :  1.06669e-05
 Reference value :  1.06971e-05
 Reference value :  1.07227e-05
 Reference value :  1.07361e-05
 Reference value :  1.07491e-05
 Reference value :  1.07501e-05
 Reference value :  1.07501e-05
 Reference value :  1.07501e-05
 Reference value :  1.07502e-05
 Reference value :  1.07502e-05
 Reference value :  1.07502e-05
 Reference value :  1.07502e-05
 Reference value :  1.07502e-05
 Reference value :  1.07502e-05
 Reference value :  1.07502e-05
 Reference value :  1.07502e-05
 Reference value :  1.07503e-05
 Reference value :  1.07504e-05
 Reference value :  1.07506e-05
 Reference value :  1.07509e-05
 Reference value :  1.07514e-05
 Reference value :  1.07520e-05
 Reference value :  1.07526e-05
 Reference value :  1.07533e-05
 Reference value :  1.07541e-05
 Reference value :  1.07547e-05
 Reference value :  1.07554e-05
 Reference value :  1.07562e-05
 Reference value :  1.07572e-05
 Reference value :  1.07582e-05
 Reference value :  1.07602e-05
 Reference value :  1.07620e-05
 Reference value :  1.07652e-05
 Reference value :  1.07690e-05
 Reference value :  1.07766e-05
 Reference value :  1.07918e-05
 Reference value :  1.08223e-05
 Reference value :  1.08804e-05
 Reference value :  1.09561e-05
 Reference value :  1.10000e-05
 Reference value :  1.10000e-05
 Reference value :  1.10000e-05
 Reference value :  1.10001e-05
 Reference value :  1.10001e-05
 Reference value :  1.10001e-05
 Reference value :  1.10001e-05
 Reference value :  1.10001e-05
 Reference value :  1.10002e-05
 Reference value :  1.10002e-05
 Reference value :  1.10004e-05
 Reference value :  1.10005e-05
 Reference value :  1.10009e-05
 Reference value :  1.10014e-05
 Reference value :  1.10019e-05
 Reference value :  1.10024e-05
 Reference value :  1.10030e-05
 Reference value :  1.10037e-05
 Reference value :  1.10045e-05
 Reference value :  1.10053e-05
 Reference value :  1.10063e-05
 Reference value :  1.10076e-05
 Reference value :  1.10090e-05
 Reference value :  1.10104e-05
 Reference value :  1.10119e-05
 Reference value :  1.10132e-05
 Reference value :  1.10146e-05
 Reference value :  1.10160e-05
 Reference value :  1.10176e-05
 Reference value :  1.10209e-05
 Reference value :  1.10258e-05
 Reference value :  1.10356e-05
 Reference value :  1.10512e-05
 Reference value :  1.10631e-05
 Reference value :  1.10704e-05
 Reference value :  1.10787e-05
 Reference value :  1.10900e-05
 Reference value :  1.11009e-05
 Reference value :  1.11199e-05
 Reference value :  1.11385e-05
 Reference value :  1.11562e-05
 Reference value :  1.11916e-05
 Reference value :  1.12485e-05
 Reference value :  1.12501e-05
 Reference value :  1.12501e-05
 Reference value :  1.12501e-05
 Reference value :  1.12502e-05
 Reference value :  1.12502e-05
 Reference value :  1.12502e-05
 Reference value :  1.12502e-05
 Reference value :  1.12502e-05
 Reference value :  1.12502e-05
 Reference value :  1.12502e-05
 Reference value :  1.12502e-05
 Reference value :  1.12503e-05
 Reference value :  1.12504e-05
 Reference value :  1.12506e-05
 Reference value :  1.12509e-05
 Reference value :  1.12514e-05
 Reference value :  1.12520e-05
 Reference value :  1.12526e-05
 Reference value :  1.12532e-05
 Reference value :  1.12541e-05
 Reference value :  1.12547e-05
 Reference value :  1.12554e-05
 Reference value :  1.12561e-05
 Reference value :  1.12568e-05
 Reference value :  1.12577e-05
 Reference value :  1.12587e-05
 Reference value :  1.12606e-05
 Reference value :  1.12627e-05
 Reference value :  1.12663e-05
 Reference value :  1.12707e-05
 Reference value :  1.12794e-05
 Reference value :  1.12970e-05
 Reference value :  1.13320e-05
 Reference value :  1.14021e-05
 Reference value :  1.15000e-05
 Reference value :  1.15000e-05
 Reference value :  1.15000e-05
 Reference value :  1.15001e-05
 Reference value :  1.15001e-05
 Reference value :  1.15001e-05
 Reference value :  1.15001e-05
 Reference value :  1.15001e-05
 Reference value :  1.15002e-05
 Reference value :  1.15002e-05
 Reference value :  1.15004e-05
 Reference value :  1.15005e-05
 Reference value :  1.15009e-05
 Reference value :  1.15014e-05
 Reference value :  1.15019e-05
 Reference value :  1.15024e-05
 Reference value :  1.15031e-05
 Reference value :  1.15038e-05
 Reference value :  1.15045e-05
 Reference value :  1.15052e-05
 Reference value :  1.15059e-05
 Reference value :  1.15068e-05
 Reference value :  1.15075e-05
 Reference value :  1.15083e-05
 Reference value :  1.15095e-05
 Reference value :  1.15106e-05
 Reference value :  1.15126e-05
 Reference value :  1.15150e-05
 Reference value :  1.15168e-05
 Reference value :  1.15189e-05
 Reference value :  1.15202e-05
 Reference value :  1.15218e-05
 Reference value :  1.15232e-05
 Reference value :  1.15247e-05
 Reference value :  1.15264e-05
 Reference value :  1.15287e-05
 Reference value :  1.15312e-05
 Reference value :  1.15346e-05
 Reference value :  1.15383e-05
 Reference value :  1.15421e-05
 Reference value :  1.15451e-05
 Reference value :  1.15491e-05
 Reference value :  1.15519e-05
 Reference value :  1.15550e-05
 Reference value :  1.15584e-05
 Reference value :  1.15622e-05
 Reference value :  1.15680e-05
 Reference value :  1.15753e-05
 Reference value :  1.15819e-05
 Reference value :  1.15897e-05
 Reference value :  1.15978e-05
 Reference value :  1.16131e-05
 Reference value :  1.16360e-05
 Reference value :  1.16740e-05
 Reference value :  1.17143e-05
 Reference value :  1.17501e-05
 Reference value :  1.17501e-05
 Reference value :  1.17501e-05
 Reference value :  1.17502e-05
 Reference value :  1.17502e-05
 Reference value :  1.17502e-05
 Reference value :  1.17502e-05
 Reference value :  1.17502e-05
 Reference value :  1.17502e-05
 Reference value :  1.17502e-05
 Reference value :  1.17502e-05
 Reference value :  1.17503e-05
 Reference value :  1.17504e-05
 Reference value :  1.17506e-05
 Reference value :  1.17509e-05
 Reference value :  1.17514e-05
 Reference value :  1.17520e-05
 Reference value :  1.17526e-05
 Reference value :  1.17533e-05
 Reference value :  1.17541e-05
 Reference value :  1.17547e-05
 Reference value :  1.17554e-05
 Reference value :  1.17562e-05
 Reference value :  1.17572e-05
 Reference value :  1.17582e-05
 Reference value :  1.17602e-05
 Reference value :  1.17621e-05
 Reference value :  1.17652e-05
 Reference value :  1.17691e-05
 Reference value :  1.17768e-05
 Reference value :  1.17923e-05
 Reference value :  1.18231e-05
 Reference value :  1.18849e-05
 Reference value :  1.20000e-05
 Reference value :  1.20000e-05
 Reference value :  1.20000e-05
 Reference value :  1.20001e-05
 Reference value :  1.20001e-05
 Reference value :  1.20001e-05
 Reference value :  1.20001e-05
 Reference value :  1.20001e-05
 Reference value :  1.20002e-05
 Reference value :  1.20002e-05
 Reference value :  1.20004e-05
 Reference value :  1.20005e-05
 Reference value :  1.20009e-05
 Reference value :  1.20014e-05
 Reference value :  1.20019e-05
 Reference value :  1.20024e-05
 Reference value :  1.20030e-05
 Reference value :  1.20037e-05
 Reference value :  1.20046e-05
 Reference value :  1.20053e-05
 Reference value :  1.20063e-05
 Reference value :  1.20074e-05
 Reference value :  1.20087e-05
 Reference value :  1.20099e-05
 Reference value :  1.20111e-05
 Reference value :  1.20125e-05
 Reference value :  1.20141e-05
 Reference value :  1.20157e-05
 Reference value :  1.20176e-05
 Reference value :  1.20210e-05
 Reference value :  1.20260e-05
 Reference value :  1.20356e-05
 Reference value :  1.20538e-05
 Reference value :  1.20874e-05
 Reference value :  1.21547e-05
 Reference value :  1.22501e-05
 Reference value :  1.22501e-05
 Reference value :  1.22501e-05
 Reference value :  1.22502e-05
 Reference value :  1.22502e-05
 Reference value :  1.22502e-05
 Reference value :  1.22502e-05
 Reference value :  1.22502e-05
 Reference value :  1.22502e-05
 Reference value :  1.22502e-05
 Reference value :  1.22502e-05
 Reference value :  1.22503e-05
 Reference value :  1.22504e-05
 Reference value :  1.22506e-05
 Reference value :  1.22509e-05
 Reference value :  1.22514e-05
 Reference value :  1.22520e-05
 Reference value :  1.22526e-05
 Reference value :  1.22532e-05
 Reference value :  1.22541e-05
 Reference value :  1.22547e-05
 Reference value :  1.22554e-05
 Reference value :  1.22561e-05
 Reference value :  1.22568e-05
 Reference value :  1.22577e-05
 Reference value :  1.22587e-05
 Reference value :  1.22597e-05
 Reference value :  1.22612e-05
 Reference value :  1.22628e-05
 Reference value :  1.22651e-05
 Reference value :  1.22679e-05
 Reference value :  1.22721e-05
 Reference value :  1.22805e-05
 Reference value :  1.22947e-05
 Reference value :  1.23229e-05
 Reference value :  1.23794e-05
 Reference value :  1.24923e-05
 Reference value :  1.25000e-05
 Reference value :  1.25000e-05
 Reference value :  1.25000e-05
 Reference value :  1.25001e-05
 Reference value :  1.25001e-05
 Reference value :  1.25001e-05
 Reference value :  1.25001e-05
 Reference value :  1.25001e-05
 Reference value :  1.25002e-05
 Reference value :  1.25002e-05
 Reference value :  1.25004e-05
 Reference value :  1.25005e-05
 Reference value :  1.25009e-05
 Reference value :  1.25014e-05
 Reference value :  1.25019e-05
 Reference value :  1.25024e-05
 Reference value :  1.25031e-05
 Reference value :  1.25038e-05
 Reference value :  1.25045e-05
 Reference value :  1.25052e-05
 Reference value :  1.25059e-05
 Reference value :  1.25065e-05
 Reference value :  1.25072e-05
 Reference value :  1.25079e-05
 Reference value :  1.25089e-05
 Reference value :  1.25099e-05
 Reference value :  1.25114e-05
 Reference value :  1.25126e-05
 Reference value :  1.25138e-05
 Reference value :  1.25151e-05
 Reference value :  1.25166e-05
 Reference value :  1.25179e-05
 Reference value :  1.25190e-05
 Reference value :  1.25200e-05
 Reference value :  1.25212e-05
 Reference value :  1.25224e-05
 Reference value :  1.25236e-05
 Reference value :  1.25251e-05
 Reference value :  1.25270e-05
 Reference value :  1.25291e-05
 Reference value :  1.25326e-05
 Reference value :  1.25384e-05
 Reference value :  1.25470e-05
 Reference value :  1.25624e-05
 Reference value :  1.25815e-05
 Reference value :  1.26015e-05
 Reference value :  1.26214e-05
 Reference value :  1.26395e-05
 Reference value :  1.26639e-05
 Reference value :  1.26891e-05
 Reference value :  1.27394e-05
 Reference value :  1.27501e-05
 Reference value :  1.27501e-05
 Reference value :  1.27501e-05
 Reference value :  1.27502e-05
 Reference value :  1.27502e-05
 Reference value :  1.27502e-05
 Reference value :  1.27502e-05
 Reference value :  1.27502e-05
 Reference value :  1.27502e-05
 Reference value :  1.27502e-05
 Reference value :  1.27502e-05
 Reference value :  1.27503e-05
 Reference value :  1.27504e-05
 Reference value :  1.27506e-05
 Reference value :  1.27509e-05
 Reference value :  1.27514e-05
 Reference value :  1.27520e-05
 Reference value :  1.27526e-05
 Reference value :  1.27533e-05
 Reference value :  1.27541e-05
 Reference value :  1.27547e-05
 Reference value :  1.27554e-05
 Reference value :  1.27563e-05
 Reference value :  1.27572e-05
 Reference value :  1.27582e-05
 Reference value :  1.27603e-05
 Reference value :  1.27622e-05
 Reference value :  1.27654e-05
 Reference value :  1.27692e-05
 Reference value :  1.27769e-05
 Reference value :  1.27923e-05
 Reference value :  1.28230e-05
 Reference value :  1.28845e-05
 Reference value :  1.30000e-05
 Reference value :  1.30000e-05
 Reference value :  1.30000e-05
 Reference value :  1.30001e-05
 Reference value :  1.30001e-05
 Reference value :  1.30001e-05
 Reference value :  1.30001e-05
 Reference value :  1.30001e-05
 Reference value :  1.30002e-05
 Reference value :  1.30002e-05
 Reference value :  1.30004e-05
 Reference value :  1.30005e-05
 Reference value :  1.30009e-05
 Reference value :  1.30014e-05
 Reference value :  1.30019e-05
 Reference value :  1.30024e-05
 Reference value :  1.30030e-05
 Reference value :  1.30037e-05
 Reference value :  1.30046e-05
 Reference value :  1.30053e-05
 Reference value :  1.30063e-05
 Reference value :  1.30074e-05
 Reference value :  1.30087e-05
 Reference value :  1.30099e-05
 Reference value :  1.30111e-05
 Reference value :  1.30123e-05
 Reference value :  1.30136e-05
 Reference value :  1.30149e-05
 Reference value :  1.30164e-05
 Reference value :  1.30195e-05
 Reference value :  1.30255e-05
 Reference value :  1.30361e-05
 Reference value :  1.30572e-05
 Reference value :  1.30996e-05
 Reference value :  1.31842e-05
 Reference value :  1.32501e-05
 Reference value :  1.32501e-05
 Reference value :  1.32501e-05
 Reference value :  1.32502e-05
 Reference value :  1.32502e-05
 Reference value :  1.32502e-05
 Reference value :  1.32502e-05
 Reference value :  1.32502e-05
 Reference value :  1.32502e-05
 Reference value :  1.32502e-05
 Reference value :  1.32502e-05
 Reference value :  1.32503e-05
 Reference value :  1.32504e-05
 Reference value :  1.32506e-05
 Reference value :  1.32509e-05
 Reference value :  1.32514e-05
 Reference value :  1.32520e-05
 Reference value :  1.32526e-05
 Reference value :  1.32533e-05
 Reference value :  1.32541e-05
 Reference value :  1.32548e-05
 Reference value :  1.32555e-05
 Reference value :  1.32562e-05
 Reference value :  1.32569e-05
 Reference value :  1.32579e-05
 Reference value :  1.32589e-05
 Reference value :  1.32601e-05
 Reference value :  1.32615e-05
 Reference value :  1.32635e-05
 Reference value :  1.32656e-05
 Reference value :  1.32692e-05
 Reference value :  1.32739e-05
 Reference value :  1.32832e-05
 Reference value :  1.33019e-05
 Reference value :  1.33392e-05
 Reference value :  1.34139e-05
 Reference value :  1.35000e-05
 Reference value :  1.35000e-05
 Reference value :  1.35000e-05
 Reference value :  1.35001e-05
 Reference value :  1.35001e-05
 Reference value :  1.35001e-05
 Reference value :  1.35001e-05
 Reference value :  1.35001e-05
 Reference value :  1.35002e-05
 Reference value :  1.35002e-05
 Reference value :  1.35004e-05
 Reference value :  1.35005e-05
 Reference value :  1.35009e-05
 Reference value :  1.35014e-05
 Reference value :  1.35019e-05
 Reference value :  1.35024e-05
 Reference value :  1.35031e-05
 Reference value :  1.35037e-05
 Reference value :  1.35045e-05
 Reference value :  1.35051e-05
 Reference value :  1.35058e-05
 Reference value :  1.35065e-05
 Reference value :  1.35072e-05
 Reference value :  1.35079e-05
 Reference value :  1.35090e-05
 Reference value :  1.35099e-05
 Reference value :  1.35118e-05
 Reference value :  1.35129e-05
 Reference value :  1.35143e-05
 Reference value :  1.35156e-05
 Reference value :  1.35171e-05
 Reference value :  1.35186e-05
 Reference value :  1.35200e-05
 Reference value :  1.35215e-05
 Reference value :  1.35228e-05
 Reference value :  1.35242e-05
 Reference value :  1.35259e-05
 Reference value :  1.35280e-05
 Reference value :  1.35303e-05
 Reference value :  1.35341e-05
 Reference value :  1.35395e-05
 Reference value :  1.35482e-05
 Reference value :  1.35628e-05
 Reference value :  1.35780e-05
 Reference value :  1.35918e-05
 Reference value :  1.36093e-05
 Reference value :  1.36263e-05
 Reference value :  1.36495e-05
 Reference value :  1.36704e-05
 Reference value :  1.36900e-05
 Reference value :  1.37086e-05
 Reference value :  1.37460e-05
 Reference value :  1.37501e-05
 Reference value :  1.37501e-05
 Reference value :  1.37501e-05
 Reference value :  1.37502e-05
 Reference value :  1.37502e-05
 Reference value :  1.37502e-05
 Reference value :  1.37502e-05
 Reference value :  1.37502e-05
 Reference value :  1.37502e-05
 Reference value :  1.37502e-05
 Reference value :  1.37502e-05
 Reference value :  1.37503e-05
 Reference value :  1.37504e-05
 Reference value :  1.37506e-05
 Reference value :  1.37509e-05
 Reference value :  1.37514e-05
 Reference value :  1.37520e-05
 Reference value :  1.37526e-05
 Reference value :  1.37533e-05
 Reference value :  1.37541e-05
 Reference value :  1.37547e-05
 Reference value :  1.37554e-05
 Reference value :  1.37563e-05
 Reference value :  1.37572e-05
 Reference value :  1.37583e-05
 Reference value :  1.37602e-05
 Reference value :  1.37621e-05
 Reference value :  1.37652e-05
 Reference value :  1.37691e-05
 Reference value :  1.37769e-05
 Reference value :  1.37924e-05
 Reference value :  1.38236e-05
 Reference value :  1.38858e-05
 Reference value :  1.40000e-05
 Reference value :  1.40000e-05
 Reference value :  1.40000e-05
 Reference value :  1.40001e-05
 Reference value :  1.40001e-05
 Reference value :  1.40001e-05
 Reference value :  1.40001e-05
 Reference value :  1.40001e-05
 Reference value :  1.40002e-05
 Reference value :  1.40002e-05
 Reference value :  1.40004e-05
 Reference value :  1.40005e-05
 Reference value :  1.40009e-05
 Reference value :  1.40014e-05
 Reference value :  1.40019e-05
 Reference value :  1.40024e-05
 Reference value :  1.40030e-05
 Reference value :  1.40037e-05
 Reference value :  1.40046e-05
 Reference value :  1.40054e-05
 Reference value :  1.40063e-05
 Reference value :  1.40076e-05
 Reference value :  1.40088e-05
 Reference value :  1.40102e-05
 Reference value :  1.40115e-05
 Reference value :  1.40128e-05
 Reference value :  1.40142e-05
 Reference value :  1.40157e-05
 Reference value :  1.40174e-05
 Reference value :  1.40205e-05
 Reference value :  1.40251e-05
 Reference value :  1.40337e-05
 Reference value :  1.40496e-05
 Reference value :  1.40791e-05
 Reference value :  1.41377e-05
 Reference value :  1.42501e-05
 Reference value :  1.42501e-05
 Reference value :  1.42501e-05
 Reference value :  1.42502e-05
 Reference value :  1.42502e-05
 Reference value :  1.42502e-05
 Reference value :  1.42502e-05
 Reference value :  1.42502e-05
 Reference value :  1.42502e-05
 Reference value :  1.42502e-05
 Reference value :  1.42502e-05
 Reference value :  1.42503e-05
 Reference value :  1.42504e-05
 Reference value :  1.42506e-05
 Reference value :  1.42509e-05
 Reference value :  1.42514e-05
 Reference value :  1.42520e-05
 Reference value :  1.42526e-05
 Reference value :  1.42533e-05
 Reference value :  1.42541e-05
 Reference value :  1.42547e-05
 Reference value :  1.42554e-05
 Reference value :  1.42561e-05
 Reference value :  1.42569e-05
 Reference value :  1.42578e-05
 Reference value :  1.42589e-05
 Reference value :  1.42601e-05
 Reference value :  1.42615e-05
 Reference value :  1.42636e-05
 Reference value :  1.42656e-05
 Reference value :  1.42692e-05
 Reference value :  1.42737e-05
 Reference value :  1.42827e-05
 Reference value :  1.43006e-05
 Reference value :  1.43366e-05
 Reference value :  1.44085e-05
 Reference value :  1.45000e-05
 Reference value :  1.45000e-05
 Reference value :  1.45000e-05
 Reference value :  1.45001e-05
 Reference value :  1.45001e-05
 Reference value :  1.45001e-05
 Reference value :  1.45001e-05
 Reference value :  1.45001e-05
 Reference value :  1.45002e-05
 Reference value :  1.45002e-05
 Reference value :  1.45004e-05
 Reference value :  1.45005e-05
 Reference value :  1.45009e-05
 Reference value :  1.45014e-05
 Reference value :  1.45019e-05
 Reference value :  1.45024e-05
 Reference value :  1.45031e-05
 Reference value :  1.45037e-05
 Reference value :  1.45045e-05
 Reference value :  1.45051e-05
 Reference value :  1.45058e-05
 Reference value :  1.45065e-05
 Reference value :  1.45073e-05
 Reference value :  1.45080e-05
 Reference value :  1.45091e-05
 Reference value :  1.45101e-05
 Reference value :  1.45120e-05
 Reference value :  1.45133e-05
 Reference value :  1.45147e-05
 Reference value :  1.45160e-05
 Reference value :  1.45175e-05
 Reference value :  1.45191e-05
 Reference value :  1.45205e-05
 Reference value :  1.45219e-05
 Reference value :  1.45234e-05
 Reference value :  1.45248e-05
 Reference value :  1.45265e-05
 Reference value :  1.45289e-05
 Reference value :  1.45314e-05
 Reference value :  1.45364e-05
 Reference value :  1.45431e-05
 Reference value :  1.45521e-05
 Reference value :  1.45617e-05
 Reference value :  1.45778e-05
 Reference value :  1.46063e-05
 Reference value :  1.46371e-05
 Reference value :  1.46967e-05
 Reference value :  1.47501e-05
 Reference value :  1.47501e-05
 Reference value :  1.47501e-05
 Reference value :  1.47502e-05
 Reference value :  1.47502e-05
 Reference value :  1.47502e-05
 Reference value :  1.47502e-05
 Reference value :  1.47502e-05
 Reference value :  1.47502e-05
 Reference value :  1.47502e-05
 Reference value :  1.47502e-05
 Reference value :  1.47503e-05
 Reference value :  1.47504e-05
 Reference value :  1.47506e-05
 Reference value :  1.47509e-05
 Reference value :  1.47514e-05
 Reference value :  1.47520e-05
 Reference value :  1.47526e-05
 Reference value :  1.47533e-05
 Reference value :  1.47541e-05
 Reference value :  1.47547e-05
 Reference value :  1.47554e-05
 Reference value :  1.47563e-05
 Reference value :  1.47572e-05
 Reference value :  1.47582e-05
 Reference value :  1.47603e-05
 Reference value :  1.47622e-05
 Reference value :  1.47654e-05
 Reference value :  1.47693e-05
 Reference value :  1.47770e-05
 Reference value :  1.47925e-05
 Reference value :  1.48234e-05
 Reference value :  1.48852e-05
 Reference value :  1.50000e-05
 Reference value :  1.50000e-05
 Reference value :  1.50000e-05
 Reference value :  1.50001e-05
 Reference value :  1.50001e-05
 Reference value :  1.50001e-05
 Reference value :  1.50001e-05
 Reference value :  1.50001e-05
 Reference value :  1.50002e-05
 Reference value :  1.50002e-05
 Reference value :  1.50004e-05
 Reference value :  1.50005e-05
 Reference value :  1.50009e-05
 Reference value :  1.50014e-05
 Reference value :  1.50019e-05
 Reference value :  1.50024e-05
 Reference value :  1.50030e-05
 Reference value :  1.50037e-05
 Reference value :  1.50046e-05
 Reference value :  1.50054e-05
 Reference value :  1.50063e-05
 Reference value :  1.50074e-05
 Reference value :  1.50087e-05
 Reference value :  1.50099e-05
 Reference value :  1.50111e-05
 Reference value :  1.50122e-05
 Reference value :  1.50135e-05
 Reference value :  1.50148e-05
 Reference value :  1.50163e-05
 Reference value :  1.50193e-05
 Reference value :  1.50252e-05
 Reference value :  1.50356e-05
 Reference value :  1.50563e-05
 Reference value :  1.50977e-05
 Reference value :  1.51806e-05
 Reference value :  1.52501e-05
 Reference value :  1.52501e-05
 Reference value :  1.52501e-05
 Reference value :  1.52502e-05
 Reference value :  1.52502e-05
 Reference value :  1.52502e-05
 Reference value :  1.52502e-05
 Reference value :  1.52502e-05
 Reference value :  1.52502e-05
 Reference value :  1.52502e-05
 Reference value :  1.52502e-05
 Reference value :  1.52503e-05
 Reference value :  1.52504e-05
 Reference value :  1.52506e-05
 Reference value :  1.52509e-05
 Reference value :  1.52514e-05
 Reference value :  1.52520e-05
 Reference value :  1.52526e-05
 Reference value :  1.52533e-05
 Reference value :  1.52541e-05
 Reference value :  1.52548e-05
 Reference value :  1.52555e-05
 Reference value :  1.52561e-05
 Reference value :  1.52569e-05
 Reference value :  1.52579e-05
 Reference value :  1.52589e-05
 Reference value :  1.52601e-05
 Reference value :  1.52615e-05
 Reference value :  1.52636e-05
 Reference value :  1.52656e-05
 Reference value :  1.52693e-05
 Reference value :  1.52739e-05
 Reference value :  1.52830e-05
 Reference value :  1.53012e-05
 Reference value :  1.53377e-05
 Reference value :  1.54106e-05
 Reference value :  1.55000e-05
 Reference value :  1.55013e-05
 Reference value :  1.55038e-05
 Reference value :  1.55051e-05
 Reference value :  1.55064e-05
 Reference value :  1.55077e-05
 Reference value :  1.55089e-05
 Reference value :  1.55101e-05
 Reference value :  1.55114e-05
 Reference value :  1.55131e-05
 Reference value :  1.55145e-05
 Reference value :  1.55159e-05
 Reference value :  1.55173e-05
 Reference value :  1.55188e-05
 Reference value :  1.55199e-05
 Reference value :  1.55209e-05
 Reference value :  1.55222e-05
 Reference value :  1.55234e-05
 Reference value :  1.55246e-05
 Reference value :  1.55261e-05
 Reference value :  1.55282e-05
 Reference value :  1.55303e-05
 Reference value :  1.55341e-05
 Reference value :  1.55398e-05
 Reference value :  1.55471e-05
 Reference value :  1.55580e-05
 Reference value :  1.55788e-05
 Reference value :  1.56132e-05
 Reference value :  1.56655e-05
 Reference value :  1.57388e-05
 Reference value :  1.57501e-05
 Reference value :  1.57501e-05
 Reference value :  1.57501e-05
[...]
 Reference value :  1.74254e-04
 Reference value :  1.74255e-04
 Reference value :  1.74255e-04
 Reference value :  1.74256e-04
 Reference value :  1.74257e-04
 Reference value :  1.74258e-04
 Reference value :  1.74260e-04
 Reference value :  1.74262e-04
 Reference value :  1.74265e-04
 Reference value :  1.74269e-04
 Reference value :  1.74277e-04
 Reference value :  1.74292e-04
 Reference value :  1.74323e-04
 Reference value :  1.74385e-04
 Reference value :  1.74500e-04
 Reference value :  1.74500e-04
 Reference value :  1.74500e-04
 Reference value :  1.74500e-04
 Reference value :  1.74500e-04
 Reference value :  1.74500e-04
 Reference value :  1.74500e-04
 Reference value :  1.74500e-04
 Reference value :  1.74500e-04
 Reference value :  1.74500e-04
 Reference value :  1.74500e-04
 Reference value :  1.74501e-04
 Reference value :  1.74501e-04
 Reference value :  1.74501e-04
 Reference value :  1.74502e-04
 Reference value :  1.74502e-04
 Reference value :  1.74503e-04
 Reference value :  1.74504e-04
 Reference value :  1.74505e-04
 Reference value :  1.74505e-04
 Reference value :  1.74506e-04
 Reference value :  1.74507e-04
 Reference value :  1.74509e-04
 Reference value :  1.74510e-04
 Reference value :  1.74511e-04
 Reference value :  1.74512e-04
 Reference value :  1.74514e-04
 Reference value :  1.74515e-04
 Reference value :  1.74516e-04
 Reference value :  1.74519e-04
 Reference value :  1.74525e-04
 Reference value :  1.74536e-04
 Reference value :  1.74557e-04
 Reference value :  1.74600e-04
 Reference value :  1.74684e-04
 Reference value :  1.74750e-04
 Reference value :  1.74750e-04
 Reference value :  1.74750e-04
 Reference value :  1.74750e-04
 Reference value :  1.74750e-04
 Reference value :  1.74750e-04
 Reference value :  1.74750e-04
 Reference value :  1.74750e-04
 Reference value :  1.74750e-04
 Reference value :  1.74750e-04
 Reference value :  1.74750e-04
 Reference value :  1.74750e-04
 Reference value :  1.74750e-04
 Reference value :  1.74751e-04
 Reference value :  1.74751e-04
 Reference value :  1.74751e-04
 Reference value :  1.74752e-04
 Reference value :  1.74753e-04
 Reference value :  1.74753e-04
 Reference value :  1.74754e-04
 Reference value :  1.74755e-04
 Reference value :  1.74755e-04
 Reference value :  1.74756e-04
 Reference value :  1.74757e-04
 Reference value :  1.74758e-04
 Reference value :  1.74759e-04
 Reference value :  1.74760e-04
 Reference value :  1.74762e-04
 Reference value :  1.74764e-04
 Reference value :  1.74766e-04
 Reference value :  1.74769e-04
 Reference value :  1.74774e-04
 Reference value :  1.74783e-04
 Reference value :  1.74802e-04
 Reference value :  1.74839e-04
 Reference value :  1.74914e-04
 Reference value :  1.75000e-04
 Reference value :  1.75000e-04
 Reference value :  1.75000e-04
 Reference value :  1.75000e-04
 Reference value :  1.75000e-04
 Reference value :  1.75000e-04
 Reference value :  1.75000e-04
 Reference value :  1.75000e-04
 Reference value :  1.75000e-04
 Reference value :  1.75000e-04
 Reference value :  1.75000e-04
 Reference value :  1.75001e-04
 Reference value :  1.75001e-04
 Reference value :  1.75001e-04
 Reference value :  1.75002e-04
 Reference value :  1.75002e-04
 Reference value :  1.75003e-04
 Reference value :  1.75004e-04
 Reference value :  1.75005e-04
 Reference value :  1.75005e-04
 Reference value :  1.75006e-04
 Reference value :  1.75007e-04
 Reference value :  1.75007e-04
 Reference value :  1.75008e-04
 Reference value :  1.75009e-04
 Reference value :  1.75010e-04
 Reference value :  1.75012e-04
 Reference value :  1.75013e-04
 Reference value :  1.75014e-04
 Reference value :  1.75016e-04
 Reference value :  1.75017e-04
 Reference value :  1.75019e-04
 Reference value :  1.75020e-04
 Reference value :  1.75021e-04
 Reference value :  1.75023e-04
 Reference value :  1.75024e-04
 Reference value :  1.75026e-04
 Reference value :  1.75028e-04
 Reference value :  1.75030e-04
 Reference value :  1.75034e-04
 Reference value :  1.75037e-04
 Reference value :  1.75041e-04
 Reference value :  1.75044e-04
 Reference value :  1.75048e-04
 Reference value :  1.75050e-04
 Reference value :  1.75053e-04
 Reference value :  1.75057e-04
 Reference value :  1.75063e-04
 Reference value :  1.75071e-04
 Reference value :  1.75085e-04
 Reference value :  1.75103e-04
 Reference value :  1.75130e-04
 Reference value :  1.75165e-04
 Reference value :  1.75223e-04
 Reference value :  1.75250e-04
 Reference value :  1.75250e-04
 Reference value :  1.75250e-04
 Reference value :  1.75250e-04
 Reference value :  1.75250e-04
 Reference value :  1.75250e-04
 Reference value :  1.75250e-04
 Reference value :  1.75250e-04
 Reference value :  1.75250e-04
 Reference value :  1.75250e-04
 Reference value :  1.75250e-04
 Reference value :  1.75250e-04
 Reference value :  1.75250e-04
 Reference value :  1.75251e-04
 Reference value :  1.75251e-04
 Reference value :  1.75251e-04
 Reference value :  1.75252e-04
 Reference value :  1.75253e-04
 Reference value :  1.75253e-04
 Reference value :  1.75254e-04
 Reference value :  1.75255e-04
 Reference value :  1.75255e-04
 Reference value :  1.75256e-04
 Reference value :  1.75257e-04
 Reference value :  1.75258e-04
 Reference value :  1.75260e-04
 Reference value :  1.75262e-04
 Reference value :  1.75266e-04
 Reference value :  1.75270e-04
 Reference value :  1.75278e-04
 Reference value :  1.75294e-04
 Reference value :  1.75325e-04
 Reference value :  1.75389e-04
 Reference value :  1.75500e-04
 Reference value :  1.75500e-04
 Reference value :  1.75500e-04
 Reference value :  1.75500e-04
 Reference value :  1.75500e-04
 Reference value :  1.75500e-04
 Reference value :  1.75500e-04
 Reference value :  1.75500e-04
 Reference value :  1.75500e-04
 Reference value :  1.75500e-04
 Reference value :  1.75500e-04
 Reference value :  1.75501e-04
 Reference value :  1.75501e-04
 Reference value :  1.75501e-04
 Reference value :  1.75502e-04
 Reference value :  1.75502e-04
 Reference value :  1.75503e-04
 Reference value :  1.75504e-04
 Reference value :  1.75505e-04
 Reference value :  1.75505e-04
 Reference value :  1.75506e-04
 Reference value :  1.75508e-04
 Reference value :  1.75509e-04
 Reference value :  1.75510e-04
 Reference value :  1.75512e-04
 Reference value :  1.75513e-04
 Reference value :  1.75514e-04
 Reference value :  1.75516e-04
 Reference value :  1.75518e-04
 Reference value :  1.75521e-04
 Reference value :  1.75525e-04
 Reference value :  1.75534e-04
 Reference value :  1.75549e-04
 Reference value :  1.75579e-04
 Reference value :  1.75637e-04
 Reference value :  1.75750e-04
 Reference value :  1.75750e-04
 Reference value :  1.75750e-04
 Reference value :  1.75750e-04
 Reference value :  1.75750e-04
 Reference value :  1.75750e-04
 Reference value :  1.75750e-04
 Reference value :  1.75750e-04
 Reference value :  1.75750e-04
 Reference value :  1.75750e-04
 Reference value :  1.75750e-04
 Reference value :  1.75750e-04
 Reference value :  1.75750e-04
 Reference value :  1.75751e-04
 Reference value :  1.75751e-04
 Reference value :  1.75751e-04
 Reference value :  1.75752e-04
 Reference value :  1.75753e-04
 Reference value :  1.75753e-04
 Reference value :  1.75754e-04
 Reference value :  1.75755e-04
 Reference value :  1.75755e-04
 Reference value :  1.75756e-04
 Reference value :  1.75757e-04
 Reference value :  1.75758e-04
 Reference value :  1.75759e-04
 Reference value :  1.75761e-04
 Reference value :  1.75763e-04
 Reference value :  1.75767e-04
 Reference value :  1.75772e-04
 Reference value :  1.75781e-04
 Reference value :  1.75800e-04
 Reference value :  1.75838e-04
 Reference value :  1.75915e-04
 Reference value :  1.76000e-04
 Reference value :  1.76000e-04
 Reference value :  1.76000e-04
 Reference value :  1.76000e-04
 Reference value :  1.76000e-04
 Reference value :  1.76000e-04
 Reference value :  1.76000e-04
 Reference value :  1.76000e-04
 Reference value :  1.76000e-04
 Reference value :  1.76000e-04
 Reference value :  1.76000e-04
 Reference value :  1.76001e-04
 Reference value :  1.76001e-04
 Reference value :  1.76001e-04
 Reference value :  1.76002e-04
 Reference value :  1.76002e-04
 Reference value :  1.76003e-04
 Reference value :  1.76004e-04
 Reference value :  1.76005e-04
 Reference value :  1.76005e-04
 Reference value :  1.76006e-04
 Reference value :  1.76007e-04
 Reference value :  1.76007e-04
 Reference value :  1.76008e-04
 Reference value :  1.76009e-04
 Reference value :  1.76011e-04
 Reference value :  1.76013e-04
 Reference value :  1.76015e-04
 Reference value :  1.76017e-04
 Reference value :  1.76019e-04
 Reference value :  1.76021e-04
 Reference value :  1.76023e-04
 Reference value :  1.76024e-04
 Reference value :  1.76026e-04
 Reference value :  1.76028e-04
 Reference value :  1.76031e-04
 Reference value :  1.76034e-04
 Reference value :  1.76039e-04
 Reference value :  1.76047e-04
 Reference value :  1.76056e-04
 Reference value :  1.76067e-04
 Reference value :  1.76076e-04
 Reference value :  1.76086e-04
 Reference value :  1.76096e-04
 Reference value :  1.76106e-04
 Reference value :  1.76114e-04
 Reference value :  1.76126e-04
 Reference value :  1.76138e-04
 Reference value :  1.76160e-04
 Reference value :  1.76191e-04
 Reference value :  1.76249e-04
 Reference value :  1.76250e-04
 Reference value :  1.76250e-04
 Reference value :  1.76250e-04
 Reference value :  1.76250e-04
 Reference value :  1.76250e-04
 Reference value :  1.76250e-04
 Reference value :  1.76250e-04
 Reference value :  1.76250e-04
 Reference value :  1.76250e-04
 Reference value :  1.76250e-04
 Reference value :  1.76250e-04
 Reference value :  1.76250e-04
 Reference value :  1.76250e-04
 Reference value :  1.76251e-04
 Reference value :  1.76251e-04
 Reference value :  1.76251e-04
 Reference value :  1.76252e-04
 Reference value :  1.76253e-04
 Reference value :  1.76253e-04
 Reference value :  1.76254e-04
 Reference value :  1.76255e-04
 Reference value :  1.76255e-04
 Reference value :  1.76256e-04
 Reference value :  1.76257e-04
 Reference value :  1.76258e-04
 Reference value :  1.76260e-04
 Reference value :  1.76262e-04
 Reference value :  1.76265e-04
 Reference value :  1.76269e-04
 Reference value :  1.76277e-04
 Reference value :  1.76292e-04
 Reference value :  1.76323e-04
 Reference value :  1.76385e-04
 Reference value :  1.76500e-04
 Reference value :  1.76500e-04
 Reference value :  1.76500e-04
 Reference value :  1.76500e-04
 Reference value :  1.76500e-04
 Reference value :  1.76500e-04
 Reference value :  1.76500e-04
 Reference value :  1.76500e-04
 Reference value :  1.76500e-04
 Reference value :  1.76500e-04
 Reference value :  1.76500e-04
 Reference value :  1.76501e-04
 Reference value :  1.76501e-04
 Reference value :  1.76501e-04
 Reference value :  1.76502e-04
 Reference value :  1.76502e-04
 Reference value :  1.76503e-04
 Reference value :  1.76504e-04
 Reference value :  1.76505e-04
 Reference value :  1.76505e-04
 Reference value :  1.76506e-04
 Reference value :  1.76507e-04
 Reference value :  1.76509e-04
 Reference value :  1.76510e-04
 Reference value :  1.76511e-04
 Reference value :  1.76512e-04
 Reference value :  1.76514e-04
 Reference value :  1.76515e-04
 Reference value :  1.76516e-04
 Reference value :  1.76519e-04
 Reference value :  1.76525e-04
 Reference value :  1.76536e-04
 Reference value :  1.76556e-04
 Reference value :  1.76598e-04
 Reference value :  1.76681e-04
 Reference value :  1.76750e-04
 Reference value :  1.76750e-04
 Reference value :  1.76750e-04
 Reference value :  1.76750e-04
 Reference value :  1.76750e-04
 Reference value :  1.76750e-04
 Reference value :  1.76750e-04
 Reference value :  1.76750e-04
 Reference value :  1.76750e-04
 Reference value :  1.76750e-04
 Reference value :  1.76750e-04
 Reference value :  1.76750e-04
 Reference value :  1.76750e-04
 Reference value :  1.76751e-04
 Reference value :  1.76751e-04
 Reference value :  1.76751e-04
 Reference value :  1.76752e-04
 Reference value :  1.76753e-04
 Reference value :  1.76753e-04
 Reference value :  1.76754e-04
 Reference value :  1.76755e-04
 Reference value :  1.76755e-04
 Reference value :  1.76756e-04
 Reference value :  1.76757e-04
 Reference value :  1.76758e-04
 Reference value :  1.76759e-04
 Reference value :  1.76760e-04
 Reference value :  1.76762e-04
 Reference value :  1.76764e-04
 Reference value :  1.76766e-04
 Reference value :  1.76769e-04
 Reference value :  1.76774e-04
 Reference value :  1.76783e-04
 Reference value :  1.76802e-04
 Reference value :  1.76838e-04
 Reference value :  1.76912e-04
 Reference value :  1.77000e-04
 Reference value :  1.77000e-04
 Reference value :  1.77000e-04
 Reference value :  1.77000e-04
 Reference value :  1.77000e-04
 Reference value :  1.77000e-04
 Reference value :  1.77000e-04
 Reference value :  1.77000e-04
 Reference value :  1.77000e-04
 Reference value :  1.77000e-04
 Reference value :  1.77000e-04
 Reference value :  1.77001e-04
 Reference value :  1.77001e-04
 Reference value :  1.77001e-04
 Reference value :  1.77002e-04
 Reference value :  1.77002e-04
 Reference value :  1.77003e-04
 Reference value :  1.77004e-04
 Reference value :  1.77005e-04
 Reference value :  1.77005e-04
 Reference value :  1.77006e-04
 Reference value :  1.77007e-04
 Reference value :  1.77007e-04
 Reference value :  1.77008e-04
 Reference value :  1.77009e-04
 Reference value :  1.77010e-04
 Reference value :  1.77012e-04
 Reference value :  1.77013e-04
 Reference value :  1.77014e-04
 Reference value :  1.77016e-04
 Reference value :  1.77017e-04
 Reference value :  1.77019e-04
 Reference value :  1.77020e-04
 Reference value :  1.77022e-04
 Reference value :  1.77023e-04
 Reference value :  1.77024e-04
 Reference value :  1.77026e-04
 Reference value :  1.77028e-04
 Reference value :  1.77030e-04
 Reference value :  1.77034e-04
 Reference value :  1.77039e-04
 Reference value :  1.77044e-04
 Reference value :  1.77051e-04
 Reference value :  1.77060e-04
 Reference value :  1.77072e-04
 Reference value :  1.77080e-04
 Reference value :  1.77087e-04
 Reference value :  1.77099e-04
 Reference value :  1.77110e-04
 Reference value :  1.77133e-04
 Reference value :  1.77155e-04
 Reference value :  1.77178e-04
 Reference value :  1.77224e-04
 Reference value :  1.77250e-04
 Reference value :  1.77250e-04
 Reference value :  1.77250e-04
 Reference value :  1.77250e-04
 Reference value :  1.77250e-04
 Reference value :  1.77250e-04
 Reference value :  1.77250e-04
 Reference value :  1.77250e-04
 Reference value :  1.77250e-04
 Reference value :  1.77250e-04
 Reference value :  1.77250e-04
 Reference value :  1.77250e-04
 Reference value :  1.77250e-04
 Reference value :  1.77251e-04
 Reference value :  1.77251e-04
 Reference value :  1.77251e-04
 Reference value :  1.77252e-04
 Reference value :  1.77253e-04
 Reference value :  1.77253e-04
 Reference value :  1.77254e-04
 Reference value :  1.77255e-04
 Reference value :  1.77255e-04
 Reference value :  1.77256e-04
 Reference value :  1.77257e-04
 Reference value :  1.77258e-04
 Reference value :  1.77260e-04
 Reference value :  1.77262e-04
 Reference value :  1.77265e-04
 Reference value :  1.77268e-04
 Reference value :  1.77276e-04
 Reference value :  1.77292e-04
 Reference value :  1.77322e-04
 Reference value :  1.77381e-04
 Reference value :  1.77500e-04
 Reference value :  1.77500e-04
 Reference value :  1.77500e-04
 Reference value :  1.77500e-04
 Reference value :  1.77500e-04
 Reference value :  1.77500e-04
 Reference value :  1.77500e-04
 Reference value :  1.77500e-04
 Reference value :  1.77500e-04
 Reference value :  1.77500e-04
 Reference value :  1.77500e-04
 Reference value :  1.77501e-04
 Reference value :  1.77501e-04
 Reference value :  1.77501e-04
 Reference value :  1.77502e-04
 Reference value :  1.77503e-04
 Reference value :  1.77503e-04
 Reference value :  1.77504e-04
 Reference value :  1.77505e-04
 Reference value :  1.77505e-04
 Reference value :  1.77506e-04
 Reference value :  1.77507e-04
 Reference value :  1.77509e-04
 Reference value :  1.77510e-04
 Reference value :  1.77511e-04
 Reference value :  1.77513e-04
 Reference value :  1.77514e-04
 Reference value :  1.77515e-04
 Reference value :  1.77517e-04
 Reference value :  1.77520e-04
 Reference value :  1.77526e-04
 Reference value :  1.77537e-04
 Reference value :  1.77559e-04
 Reference value :  1.77603e-04
 Reference value :  1.77692e-04
 Reference value :  1.77750e-04
 Reference value :  1.77750e-04
 Reference value :  1.77750e-04
 Reference value :  1.77750e-04
 Reference value :  1.77750e-04
 Reference value :  1.77750e-04
 Reference value :  1.77750e-04
 Reference value :  1.77750e-04
 Reference value :  1.77750e-04
 Reference value :  1.77750e-04
 Reference value :  1.77750e-04
 Reference value :  1.77750e-04
 Reference value :  1.77750e-04
 Reference value :  1.77751e-04
 Reference value :  1.77751e-04
 Reference value :  1.77751e-04
 Reference value :  1.77752e-04
 Reference value :  1.77753e-04
 Reference value :  1.77753e-04
 Reference value :  1.77754e-04
 Reference value :  1.77755e-04
 Reference value :  1.77755e-04
 Reference value :  1.77756e-04
 Reference value :  1.77757e-04
 Reference value :  1.77758e-04
 Reference value :  1.77759e-04
 Reference value :  1.77761e-04
 Reference value :  1.77763e-04
 Reference value :  1.77766e-04
 Reference value :  1.77771e-04
 Reference value :  1.77780e-04
 Reference value :  1.77797e-04
 Reference value :  1.77833e-04
 Reference value :  1.77904e-04
 Reference value :  1.78000e-04
 Reference value :  1.78000e-04
 Reference value :  1.78000e-04
 Reference value :  1.78000e-04
 Reference value :  1.78000e-04
 Reference value :  1.78000e-04
 Reference value :  1.78000e-04
 Reference value :  1.78000e-04
 Reference value :  1.78000e-04
 Reference value :  1.78000e-04
 Reference value :  1.78000e-04
 Reference value :  1.78001e-04
 Reference value :  1.78001e-04
 Reference value :  1.78001e-04
 Reference value :  1.78002e-04
 Reference value :  1.78002e-04
 Reference value :  1.78003e-04
 Reference value :  1.78004e-04
 Reference value :  1.78005e-04
 Reference value :  1.78005e-04
 Reference value :  1.78006e-04
 Reference value :  1.78007e-04
 Reference value :  1.78008e-04
 Reference value :  1.78008e-04
 Reference value :  1.78010e-04
 Reference value :  1.78011e-04
 Reference value :  1.78013e-04
 Reference value :  1.78016e-04
 Reference value :  1.78018e-04
 Reference value :  1.78020e-04
 Reference value :  1.78022e-04
 Reference value :  1.78024e-04
 Reference value :  1.78028e-04
 Reference value :  1.78033e-04
 Reference value :  1.78042e-04
 Reference value :  1.78056e-04
 Reference value :  1.78080e-04
 Reference value :  1.78122e-04
 Reference value :  1.78195e-04
 Reference value :  1.78250e-04
 Reference value :  1.78250e-04
 Reference value :  1.78250e-04
 Reference value :  1.78250e-04
 Reference value :  1.78250e-04
 Reference value :  1.78250e-04
 Reference value :  1.78250e-04
 Reference value :  1.78250e-04
 Reference value :  1.78250e-04
 Reference value :  1.78250e-04
 Reference value :  1.78250e-04
 Reference value :  1.78250e-04
 Reference value :  1.78250e-04
 Reference value :  1.78251e-04
 Reference value :  1.78251e-04
 Reference value :  1.78251e-04
 Reference value :  1.78252e-04
 Reference value :  1.78253e-04
 Reference value :  1.78253e-04
 Reference value :  1.78254e-04
 Reference value :  1.78255e-04
 Reference value :  1.78256e-04
 Reference value :  1.78258e-04
 Reference value :  1.78259e-04
 Reference value :  1.78261e-04
 Reference value :  1.78264e-04
 Reference value :  1.78267e-04
 Reference value :  1.78273e-04
 Reference value :  1.78284e-04
 Reference value :  1.78307e-04
 Reference value :  1.78351e-04
 Reference value :  1.78441e-04
 Reference value :  1.78500e-04
No. of Data Rows : 27788
ngspice-44 done
