
Note: Compatibility modes selected: hs a


Circuit: ** sch_path: /home/samantha/cace/sar-adc-using-sky130-pdk/runs/run_2025-09-05_16-28-34/parameters/power/run_18/power_consumption.sch

option SCALE: Scale is set to 1e-06 for instance and model parameters
option SCALE: Scale is set to 1e-06 for instance and model parameters
option SCALE: Scale is set to 1e-06 for instance and model parameters
option SCALE: Scale is set to 1e-06 for instance and model parameters
Doing analysis at TEMP = 27.000000 and TNOM = 27.000000

Using KLU as Direct Linear Solver
 Reference value :  0.00000e+00
 Reference value :  2.00000e-12
 Reference value :  1.60000e-11
 Reference value :  6.40000e-11
 Reference value :  1.06400e-10
 Reference value :  1.44800e-10
 Reference value :  2.98400e-10
 Reference value :  7.14525e-10
 Reference value :  1.04522e-09
 Reference value :  1.79835e-09
 Reference value :  2.64021e-09
 Reference value :  3.02285e-09
 Reference value :  3.97694e-09
 Reference value :  5.02735e-09
 Reference value :  6.39937e-09
 Reference value :  8.00243e-09
 Reference value :  9.86851e-09
 Reference value :  1.22312e-08
 Reference value :  1.29666e-08
 Reference value :  1.45957e-08
 Reference value :  1.67280e-08
 Reference value :  2.04089e-08
 Reference value :  2.68566e-08
 Reference value :  3.35218e-08
 Reference value :  4.36028e-08
 Reference value :  5.85031e-08
 Reference value :  9.00221e-08
 Reference value :  2.00373e-07
 Reference value :  2.50110e-07
 Reference value :  2.50170e-07
 Reference value :  2.50207e-07
 Reference value :  2.50250e-07
 Reference value :  2.50378e-07
 Reference value :  2.50654e-07
 Reference value :  2.51240e-07
 Reference value :  2.51657e-07
 Reference value :  2.52709e-07
 Reference value :  2.53486e-07
 Reference value :  2.54052e-07
 Reference value :  2.55365e-07
 Reference value :  2.56960e-07
 Reference value :  2.59499e-07
 Reference value :  2.65378e-07
 Reference value :  2.83601e-07
 Reference value :  3.40712e-07
 Reference value :  5.00000e-07
 Reference value :  5.00030e-07
 Reference value :  5.00100e-07
 Reference value :  5.00123e-07
 Reference value :  5.00217e-07
 Reference value :  5.00494e-07
 Reference value :  5.01320e-07
 Reference value :  5.02199e-07
 Reference value :  5.03259e-07
 Reference value :  5.04522e-07
 Reference value :  5.06278e-07
 Reference value :  5.08799e-07
 Reference value :  5.10017e-07
 Reference value :  5.12879e-07
 Reference value :  5.14609e-07
 Reference value :  5.16186e-07
 Reference value :  5.20420e-07
 Reference value :  5.27357e-07
 Reference value :  5.43628e-07
 Reference value :  6.00933e-07
 Reference value :  7.50100e-07
 Reference value :  7.50130e-07
 Reference value :  7.50200e-07
 Reference value :  7.50223e-07
 Reference value :  7.50316e-07
 Reference value :  7.50571e-07
 Reference value :  7.51193e-07
 Reference value :  7.51624e-07
 Reference value :  7.52670e-07
 Reference value :  7.53417e-07
 Reference value :  7.53941e-07
 Reference value :  7.55084e-07
 Reference value :  7.55701e-07
 Reference value :  7.56523e-07
 Reference value :  7.58993e-07
 Reference value :  7.64830e-07
 Reference value :  7.86480e-07
 Reference value :  8.73078e-07
 Reference value :  1.00000e-06
 Reference value :  1.00003e-06
 Reference value :  1.00010e-06
 Reference value :  1.00012e-06
 Reference value :  1.00022e-06
 Reference value :  1.00049e-06
 Reference value :  1.00132e-06
 Reference value :  1.00220e-06
 Reference value :  1.00331e-06
 Reference value :  1.00394e-06
 Reference value :  1.00444e-06
 Reference value :  1.00502e-06
 Reference value :  1.00556e-06
 Reference value :  1.00619e-06
 Reference value :  1.00764e-06
 Reference value :  1.01008e-06
 Reference value :  1.01153e-06
 Reference value :  1.01278e-06
 Reference value :  1.01381e-06
 Reference value :  1.01588e-06
 Reference value :  1.01695e-06
 Reference value :  1.01806e-06
 Reference value :  1.02079e-06
 Reference value :  1.02572e-06
 Reference value :  1.04149e-06
 Reference value :  1.09566e-06
 Reference value :  1.23707e-06
 Reference value :  1.25011e-06
 Reference value :  1.25017e-06
 Reference value :  1.25020e-06
 Reference value :  1.25022e-06
 Reference value :  1.25032e-06
 Reference value :  1.25057e-06
 Reference value :  1.25119e-06
 Reference value :  1.25162e-06
 Reference value :  1.25267e-06
 Reference value :  1.25342e-06
 Reference value :  1.25394e-06
 Reference value :  1.25514e-06
 Reference value :  1.25672e-06
 Reference value :  1.25953e-06
 Reference value :  1.26630e-06
 Reference value :  1.32394e-06
 Reference value :  1.50000e-06
 Reference value :  1.50003e-06
 Reference value :  1.50010e-06
 Reference value :  1.50012e-06
 Reference value :  1.50022e-06
 Reference value :  1.50049e-06
 Reference value :  1.50127e-06
 Reference value :  1.50218e-06
 Reference value :  1.50322e-06
 Reference value :  1.50441e-06
 Reference value :  1.50616e-06
 Reference value :  1.50831e-06
 Reference value :  1.51038e-06
 Reference value :  1.51156e-06
 Reference value :  1.51556e-06
 Reference value :  1.52668e-06
 Reference value :  1.56374e-06
 Reference value :  1.69103e-06
 Reference value :  1.75011e-06
 Reference value :  1.75017e-06
 Reference value :  1.75021e-06
 Reference value :  1.75026e-06
 Reference value :  1.75044e-06
 Reference value :  1.75080e-06
 Reference value :  1.75164e-06
 Reference value :  1.75269e-06
 Reference value :  1.75347e-06
 Reference value :  1.75399e-06
 Reference value :  1.75459e-06
 Reference value :  1.75516e-06
 Reference value :  1.75662e-06
 Reference value :  1.75924e-06
 Reference value :  1.76550e-06
 Reference value :  1.78944e-06
 Reference value :  1.88518e-06
 Reference value :  2.00001e-06
 Reference value :  2.00007e-06
 Reference value :  2.00011e-06
 Reference value :  2.00015e-06
 Reference value :  2.00033e-06
 Reference value :  2.00081e-06
 Reference value :  2.00127e-06
 Reference value :  2.00218e-06
 Reference value :  2.00333e-06
 Reference value :  2.00443e-06
 Reference value :  2.00501e-06
 Reference value :  2.00556e-06
 Reference value :  2.00619e-06
 Reference value :  2.00764e-06
 Reference value :  2.01007e-06
 Reference value :  2.01152e-06
 Reference value :  2.01276e-06
 Reference value :  2.01380e-06
 Reference value :  2.01587e-06
 Reference value :  2.01693e-06
 Reference value :  2.01924e-06
 Reference value :  2.02249e-06
 Reference value :  2.04156e-06
 Reference value :  2.09639e-06
 Reference value :  2.24477e-06
 Reference value :  2.25011e-06
 Reference value :  2.25017e-06
 Reference value :  2.25021e-06
 Reference value :  2.25025e-06
 Reference value :  2.25044e-06
 Reference value :  2.25080e-06
 Reference value :  2.25162e-06
 Reference value :  2.25267e-06
 Reference value :  2.25342e-06
 Reference value :  2.25394e-06
 Reference value :  2.25515e-06
 Reference value :  2.25672e-06
 Reference value :  2.25954e-06
 Reference value :  2.27459e-06
 Reference value :  2.32414e-06
 Reference value :  2.50000e-06
 Reference value :  2.50003e-06
 Reference value :  2.50010e-06
 Reference value :  2.50012e-06
 Reference value :  2.50022e-06
 Reference value :  2.50049e-06
 Reference value :  2.50132e-06
 Reference value :  2.50220e-06
 Reference value :  2.50324e-06
 Reference value :  2.50443e-06
 Reference value :  2.50509e-06
 Reference value :  2.50616e-06
 Reference value :  2.50829e-06
 Reference value :  2.51037e-06
 Reference value :  2.51153e-06
 Reference value :  2.51540e-06
 Reference value :  2.52599e-06
 Reference value :  2.60390e-06
 Reference value :  2.75010e-06
 Reference value :  2.75013e-06
 Reference value :  2.75020e-06
 Reference value :  2.75022e-06
 Reference value :  2.75032e-06
 Reference value :  2.75058e-06
 Reference value :  2.75122e-06
 Reference value :  2.75212e-06
 Reference value :  2.75347e-06
 Reference value :  2.75399e-06
 Reference value :  2.75459e-06
 Reference value :  2.75515e-06
 Reference value :  2.75661e-06
 Reference value :  2.75922e-06
 Reference value :  2.76544e-06
 Reference value :  2.78916e-06
 Reference value :  2.88405e-06
 Reference value :  3.00001e-06
 Reference value :  3.00007e-06
 Reference value :  3.00011e-06
 Reference value :  3.00015e-06
 Reference value :  3.00033e-06
 Reference value :  3.00081e-06
 Reference value :  3.00127e-06
 Reference value :  3.00218e-06
 Reference value :  3.00332e-06
 Reference value :  3.00443e-06
 Reference value :  3.00501e-06
 Reference value :  3.00556e-06
 Reference value :  3.00619e-06
 Reference value :  3.00764e-06
 Reference value :  3.01006e-06
 Reference value :  3.01151e-06
 Reference value :  3.01276e-06
 Reference value :  3.01379e-06
 Reference value :  3.01586e-06
 Reference value :  3.01693e-06
 Reference value :  3.01924e-06
 Reference value :  3.02249e-06
 Reference value :  3.03155e-06
 Reference value :  3.04159e-06
 Reference value :  3.09422e-06
 Reference value :  3.19299e-06
 Reference value :  3.22504e-06
 Reference value :  3.25011e-06
 Reference value :  3.25017e-06
 Reference value :  3.25021e-06
 Reference value :  3.25026e-06
 Reference value :  3.25044e-06
 Reference value :  3.25080e-06
 Reference value :  3.25164e-06
 Reference value :  3.25269e-06
 Reference value :  3.25347e-06
 Reference value :  3.25399e-06
 Reference value :  3.25526e-06
 Reference value :  3.25685e-06
 Reference value :  3.25992e-06
 Reference value :  3.26746e-06
 Reference value :  3.33274e-06
 Reference value :  3.50000e-06
 Reference value :  3.50001e-06
 Reference value :  3.50007e-06
 Reference value :  3.50011e-06
 Reference value :  3.50015e-06
 Reference value :  3.50022e-06
 Reference value :  3.50049e-06
 Reference value :  3.50127e-06
 Reference value :  3.50217e-06
 Reference value :  3.50322e-06
 Reference value :  3.50380e-06
 Reference value :  3.50440e-06
 Reference value :  3.50616e-06
 Reference value :  3.50718e-06
 Reference value :  3.50831e-06
 Reference value :  3.51039e-06
 Reference value :  3.51156e-06
 Reference value :  3.51553e-06
 Reference value :  3.52643e-06
 Reference value :  3.56199e-06
 Reference value :  3.68499e-06
 Reference value :  3.75011e-06
 Reference value :  3.75017e-06
 Reference value :  3.75021e-06
 Reference value :  3.75026e-06
 Reference value :  3.75044e-06
 Reference value :  3.75080e-06
 Reference value :  3.75164e-06
 Reference value :  3.75269e-06
 Reference value :  3.75347e-06
 Reference value :  3.75399e-06
 Reference value :  3.75515e-06
 Reference value :  3.75662e-06
 Reference value :  3.75923e-06
 Reference value :  3.77340e-06
 Reference value :  3.82101e-06
 Reference value :  4.00000e-06
 Reference value :  4.00003e-06
 Reference value :  4.00010e-06
 Reference value :  4.00012e-06
 Reference value :  4.00022e-06
 Reference value :  4.00033e-06
 Reference value :  4.00049e-06
 Reference value :  4.00127e-06
 Reference value :  4.00174e-06
 Reference value :  4.00218e-06
 Reference value :  4.00266e-06
 Reference value :  4.00332e-06
 Reference value :  4.00392e-06
 Reference value :  4.00443e-06
 Reference value :  4.00501e-06
 Reference value :  4.00556e-06
 Reference value :  4.00618e-06
 Reference value :  4.00682e-06
 Reference value :  4.00764e-06
 Reference value :  4.00867e-06
 Reference value :  4.01006e-06
 Reference value :  4.01153e-06
 Reference value :  4.01288e-06
 Reference value :  4.01394e-06
 Reference value :  4.01496e-06
 Reference value :  4.01709e-06
 Reference value :  4.01936e-06
 Reference value :  4.02271e-06
 Reference value :  4.04085e-06
 Reference value :  4.06287e-06
 Reference value :  4.07643e-06
 Reference value :  4.10394e-06
 Reference value :  4.11606e-06
 Reference value :  4.14424e-06
 Reference value :  4.19769e-06
 Reference value :  4.25010e-06
 Reference value :  4.25013e-06
 Reference value :  4.25020e-06
 Reference value :  4.25022e-06
 Reference value :  4.25032e-06
 Reference value :  4.25052e-06
 Reference value :  4.25094e-06
 Reference value :  4.25178e-06
 Reference value :  4.25292e-06
 Reference value :  4.25439e-06
 Reference value :  4.25577e-06
 Reference value :  4.25757e-06
 Reference value :  4.26142e-06
 Reference value :  4.27275e-06
 Reference value :  4.30609e-06
 Reference value :  4.40636e-06
 Reference value :  4.50001e-06
 Reference value :  4.50007e-06
 Reference value :  4.50011e-06
 Reference value :  4.50015e-06
 Reference value :  4.50034e-06
 Reference value :  4.50095e-06
 Reference value :  4.50216e-06
 Reference value :  4.50266e-06
 Reference value :  4.50377e-06
 Reference value :  4.50440e-06
 Reference value :  4.50516e-06
 Reference value :  4.50594e-06
 Reference value :  4.50800e-06
 Reference value :  4.51001e-06
 Reference value :  4.51260e-06
 Reference value :  4.51829e-06
 Reference value :  4.53566e-06
 Reference value :  4.60233e-06
 Reference value :  4.75010e-06
 Reference value :  4.75013e-06
 Reference value :  4.75020e-06
 Reference value :  4.75025e-06
 Reference value :  4.75038e-06
 Reference value :  4.75068e-06
 Reference value :  4.75132e-06
 Reference value :  4.75176e-06
 Reference value :  4.75289e-06
 Reference value :  4.75376e-06
 Reference value :  4.75432e-06
 Reference value :  4.75565e-06
 Reference value :  4.75733e-06
 Reference value :  4.76044e-06
 Reference value :  4.76912e-06
 Reference value :  4.79654e-06
 Reference value :  4.88596e-06
 Reference value :  5.00000e-06
 Reference value :  5.00003e-06
 Reference value :  5.00010e-06
 Reference value :  5.00012e-06
 Reference value :  5.00022e-06
 Reference value :  5.00059e-06
 Reference value :  5.00158e-06
 Reference value :  5.00265e-06
 Reference value :  5.00379e-06
 Reference value :  5.00445e-06
 Reference value :  5.00502e-06
 Reference value :  5.00626e-06
 Reference value :  5.00780e-06
 Reference value :  5.01042e-06
 Reference value :  5.01185e-06
 Reference value :  5.01421e-06
 Reference value :  5.01631e-06
 Reference value :  5.01861e-06
 Reference value :  5.02181e-06
 Reference value :  5.03341e-06
 Reference value :  5.05559e-06
 Reference value :  5.06332e-06
 Reference value :  5.07196e-06
 Reference value :  5.09922e-06
 Reference value :  5.11880e-06
 Reference value :  5.15535e-06
 Reference value :  5.21990e-06
 Reference value :  5.25011e-06
 Reference value :  5.25017e-06
 Reference value :  5.25021e-06
 Reference value :  5.25025e-06
 Reference value :  5.25038e-06
 Reference value :  5.25067e-06
 Reference value :  5.25129e-06
 Reference value :  5.25175e-06
 Reference value :  5.25286e-06
 Reference value :  5.25372e-06
 Reference value :  5.25428e-06
 Reference value :  5.25570e-06
 Reference value :  5.25745e-06
 Reference value :  5.26124e-06
 Reference value :  5.27247e-06
 Reference value :  5.30608e-06
 Reference value :  5.41015e-06
 Reference value :  5.50001e-06
 Reference value :  5.50007e-06
 Reference value :  5.50011e-06
 Reference value :  5.50015e-06
 Reference value :  5.50034e-06
 Reference value :  5.50095e-06
 Reference value :  5.50216e-06
 Reference value :  5.50265e-06
 Reference value :  5.50377e-06
 Reference value :  5.50439e-06
 Reference value :  5.50515e-06
 Reference value :  5.50592e-06
 Reference value :  5.50709e-06
 Reference value :  5.50798e-06
 Reference value :  5.50893e-06
 Reference value :  5.50993e-06
 Reference value :  5.51256e-06
 Reference value :  5.51774e-06
 Reference value :  5.53362e-06
 Reference value :  5.59470e-06
 Reference value :  5.75011e-06
 Reference value :  5.75017e-06
 Reference value :  5.75021e-06
 Reference value :  5.75025e-06
 Reference value :  5.75038e-06
 Reference value :  5.75068e-06
 Reference value :  5.75132e-06
 Reference value :  5.75224e-06
 Reference value :  5.75376e-06
 Reference value :  5.75432e-06
 Reference value :  5.75565e-06
 Reference value :  5.75734e-06
 Reference value :  5.76044e-06
 Reference value :  5.76913e-06
 Reference value :  5.79651e-06
 Reference value :  5.88556e-06
 Reference value :  6.00000e-06
 Reference value :  6.00003e-06
 Reference value :  6.00010e-06
 Reference value :  6.00012e-06
 Reference value :  6.00022e-06
 Reference value :  6.00059e-06
 Reference value :  6.00095e-06
 Reference value :  6.00158e-06
 Reference value :  6.00265e-06
 Reference value :  6.00379e-06
 Reference value :  6.00502e-06
 Reference value :  6.00626e-06
 Reference value :  6.00781e-06
 Reference value :  6.01042e-06
 Reference value :  6.01186e-06
 Reference value :  6.01421e-06
 Reference value :  6.01632e-06
 Reference value :  6.01862e-06
 Reference value :  6.02184e-06
 Reference value :  6.02775e-06
 Reference value :  6.03733e-06
 Reference value :  6.04574e-06
 Reference value :  6.06446e-06
 Reference value :  6.11022e-06
 Reference value :  6.18830e-06
 Reference value :  6.23346e-06
 Reference value :  6.25011e-06
 Reference value :  6.25017e-06
 Reference value :  6.25021e-06
 Reference value :  6.25025e-06
 Reference value :  6.25038e-06
 Reference value :  6.25066e-06
 Reference value :  6.25129e-06
 Reference value :  6.25173e-06
 Reference value :  6.25284e-06
 Reference value :  6.25369e-06
 Reference value :  6.25425e-06
 Reference value :  6.25570e-06
 Reference value :  6.25745e-06
 Reference value :  6.26123e-06
 Reference value :  6.27248e-06
 Reference value :  6.30634e-06
 Reference value :  6.41244e-06
 Reference value :  6.50001e-06
 Reference value :  6.50007e-06
 Reference value :  6.50011e-06
 Reference value :  6.50015e-06
 Reference value :  6.50034e-06
 Reference value :  6.50095e-06
 Reference value :  6.50216e-06
 Reference value :  6.50265e-06
 Reference value :  6.50377e-06
 Reference value :  6.50439e-06
 Reference value :  6.50515e-06
 Reference value :  6.50709e-06
 Reference value :  6.50797e-06
 Reference value :  6.50893e-06
 Reference value :  6.50993e-06
 Reference value :  6.51099e-06
 Reference value :  6.51427e-06
 Reference value :  6.52333e-06
 Reference value :  6.55338e-06
 Reference value :  6.67341e-06
 Reference value :  6.75011e-06
 Reference value :  6.75013e-06
 Reference value :  6.75020e-06
 Reference value :  6.75022e-06
 Reference value :  6.75031e-06
 Reference value :  6.75051e-06
 Reference value :  6.75092e-06
 Reference value :  6.75176e-06
 Reference value :  6.75289e-06
 Reference value :  6.75376e-06
 Reference value :  6.75432e-06
 Reference value :  6.75496e-06
 Reference value :  6.75565e-06
 Reference value :  6.75734e-06
 Reference value :  6.76044e-06
 Reference value :  6.76913e-06
 Reference value :  6.79645e-06
 Reference value :  6.88516e-06
 Reference value :  7.00000e-06
 Reference value :  7.00003e-06
 Reference value :  7.00010e-06
 Reference value :  7.00012e-06
 Reference value :  7.00022e-06
 Reference value :  7.00059e-06
 Reference value :  7.00095e-06
 Reference value :  7.00158e-06
 Reference value :  7.00265e-06
 Reference value :  7.00379e-06
 Reference value :  7.00445e-06
 Reference value :  7.00502e-06
 Reference value :  7.00626e-06
 Reference value :  7.00781e-06
 Reference value :  7.01043e-06
 Reference value :  7.01186e-06
 Reference value :  7.01320e-06
 Reference value :  7.01422e-06
 Reference value :  7.01516e-06
 Reference value :  7.01633e-06
 Reference value :  7.01753e-06
 Reference value :  7.02000e-06
 Reference value :  7.02387e-06
 Reference value :  7.02827e-06
 Reference value :  7.03528e-06
 Reference value :  7.05183e-06
 Reference value :  7.09903e-06
 Reference value :  7.20061e-06
 Reference value :  7.25011e-06
 Reference value :  7.25017e-06
 Reference value :  7.25021e-06
 Reference value :  7.25025e-06
 Reference value :  7.25038e-06
 Reference value :  7.25066e-06
 Reference value :  7.25129e-06
 Reference value :  7.25173e-06
 Reference value :  7.25284e-06
 Reference value :  7.25369e-06
 Reference value :  7.25425e-06
 Reference value :  7.25570e-06
 Reference value :  7.25744e-06
 Reference value :  7.26123e-06
 Reference value :  7.27246e-06
 Reference value :  7.34424e-06
 Reference value :  7.50000e-06
 Reference value :  7.50003e-06
 Reference value :  7.50010e-06
 Reference value :  7.50012e-06
 Reference value :  7.50022e-06
 Reference value :  7.50059e-06
 Reference value :  7.50158e-06
 Reference value :  7.50265e-06
 Reference value :  7.50377e-06
 Reference value :  7.50439e-06
 Reference value :  7.50515e-06
 Reference value :  7.50709e-06
 Reference value :  7.50798e-06
 Reference value :  7.50993e-06
 Reference value :  7.51256e-06
 Reference value :  7.52330e-06
 Reference value :  7.59311e-06
 Reference value :  7.75011e-06
 Reference value :  7.75017e-06
 Reference value :  7.75020e-06
 Reference value :  7.75022e-06
 Reference value :  7.75025e-06
 Reference value :  7.75031e-06
 Reference value :  7.75051e-06
 Reference value :  7.75092e-06
 Reference value :  7.75176e-06
 Reference value :  7.75289e-06
 Reference value :  7.75376e-06
 Reference value :  7.75432e-06
 Reference value :  7.75496e-06
 Reference value :  7.75565e-06
 Reference value :  7.75734e-06
 Reference value :  7.76045e-06
 Reference value :  7.76912e-06
 Reference value :  7.79638e-06
 Reference value :  7.98754e-06
 Reference value :  8.00001e-06
 Reference value :  8.00007e-06
 Reference value :  8.00011e-06
 Reference value :  8.00015e-06
 Reference value :  8.00034e-06
 Reference value :  8.00059e-06
 Reference value :  8.00095e-06
 Reference value :  8.00158e-06
 Reference value :  8.00265e-06
 Reference value :  8.00379e-06
 Reference value :  8.00501e-06
 Reference value :  8.00624e-06
 Reference value :  8.00779e-06
 Reference value :  8.00864e-06
 Reference value :  8.01054e-06
 Reference value :  8.01398e-06
 Reference value :  8.03770e-06
 Reference value :  8.10726e-06
 Reference value :  8.25011e-06
 Reference value :  8.25017e-06
 Reference value :  8.25021e-06
 Reference value :  8.25026e-06
 Reference value :  8.25044e-06
 Reference value :  8.25076e-06
 Reference value :  8.25154e-06
 Reference value :  8.25258e-06
 Reference value :  8.25421e-06
 Reference value :  8.25638e-06
 Reference value :  8.25885e-06
 Reference value :  8.26958e-06
 Reference value :  8.35422e-06
No. of Data Rows : 1204
ngspice-44 done
