
Note: Compatibility modes selected: hs a


Circuit: ** sch_path: /home/audrey/cace/sar-adc-using-sky130-pdk/runs/run_2025-09-07_18-45-09/parameters/power/run_0/power_consumption.sch

option SCALE: Scale is set to 1e-06 for instance and model parameters
option SCALE: Scale is set to 1e-06 for instance and model parameters
option SCALE: Scale is set to 1e-06 for instance and model parameters
option SCALE: Scale is set to 1e-06 for instance and model parameters
Doing analysis at TEMP = 27.000000 and TNOM = 27.000000

Using KLU as Direct Linear Solver
 Reference value :  0.00000e+00
 Reference value :  1.00000e-12
 Reference value :  4.00000e-12
 Reference value :  1.60000e-11
 Reference value :  6.40000e-11
 Reference value :  1.00000e-10
 Reference value :  1.06400e-10
 Reference value :  1.19200e-10
 Reference value :  1.44800e-10
 Reference value :  1.96000e-10
 Reference value :  2.98400e-10
 Reference value :  4.48181e-10
 Reference value :  7.26320e-10
 Reference value :  9.88391e-10
 Reference value :  1.41221e-09
 Reference value :  1.79563e-09
 Reference value :  2.21519e-09
 Reference value :  2.65895e-09
 Reference value :  3.18017e-09
 Reference value :  3.67977e-09
 Reference value :  4.17911e-09
 Reference value :  4.73051e-09
 Reference value :  5.36071e-09
 Reference value :  6.11096e-09
 Reference value :  6.86087e-09
 Reference value :  7.72389e-09
 Reference value :  8.63155e-09
 Reference value :  9.64906e-09
 Reference value :  1.08261e-08
 Reference value :  1.19315e-08
 Reference value :  1.28070e-08
 Reference value :  1.37155e-08
 Reference value :  1.62675e-08
 Reference value :  2.04121e-08
 Reference value :  2.25129e-08
 Reference value :  2.40277e-08
 Reference value :  2.54755e-08
 Reference value :  2.63924e-08
 Reference value :  2.75303e-08
 Reference value :  2.96401e-08
 Reference value :  3.19464e-08
 Reference value :  3.47403e-08
 Reference value :  3.78215e-08
 Reference value :  4.52896e-08
 Reference value :  5.87781e-08
 Reference value :  7.14620e-08
 Reference value :  9.68297e-08
 Reference value :  1.43934e-07
 Reference value :  1.96223e-07
 Reference value :  2.40814e-07
 Reference value :  2.50100e-07
 Reference value :  2.50110e-07
 Reference value :  2.50130e-07
 Reference value :  2.50200e-07
 Reference value :  2.50207e-07
 Reference value :  2.50220e-07
 Reference value :  2.50246e-07
 Reference value :  2.50299e-07
 Reference value :  2.50393e-07
 Reference value :  2.50520e-07
 Reference value :  2.50694e-07
 Reference value :  2.50933e-07
 Reference value :  2.51323e-07
 Reference value :  2.51733e-07
 Reference value :  2.52166e-07
 Reference value :  2.52774e-07
 Reference value :  2.53488e-07
 Reference value :  2.54003e-07
 Reference value :  2.54586e-07
 Reference value :  2.55206e-07
 Reference value :  2.56031e-07
 Reference value :  2.56803e-07
 Reference value :  2.58135e-07
 Reference value :  2.59561e-07
 Reference value :  2.65238e-07
 Reference value :  2.71445e-07
 Reference value :  2.82070e-07
 Reference value :  3.32640e-07
 Reference value :  4.87434e-07
 Reference value :  5.00000e-07
 Reference value :  5.00030e-07
 Reference value :  5.00070e-07
 Reference value :  5.00100e-07
 Reference value :  5.00108e-07
 Reference value :  5.00124e-07
 Reference value :  5.00220e-07
 Reference value :  5.00345e-07
 Reference value :  5.00518e-07
 Reference value :  5.00864e-07
 Reference value :  5.01310e-07
 Reference value :  5.01736e-07
 Reference value :  5.02206e-07
 Reference value :  5.02653e-07
 Reference value :  5.03198e-07
 Reference value :  5.03779e-07
 Reference value :  5.04408e-07
 Reference value :  5.05277e-07
 Reference value :  5.06080e-07
 Reference value :  5.07276e-07
 Reference value :  5.08704e-07
 Reference value :  5.09856e-07
 Reference value :  5.11098e-07
 Reference value :  5.12533e-07
 Reference value :  5.14138e-07
 Reference value :  5.15693e-07
 Reference value :  5.17664e-07
 Reference value :  5.19766e-07
 Reference value :  5.29020e-07
 Reference value :  5.53939e-07
 Reference value :  6.53614e-07
 Reference value :  7.50110e-07
 Reference value :  7.50130e-07
 Reference value :  7.50200e-07
 Reference value :  7.50208e-07
 Reference value :  7.50224e-07
 Reference value :  7.50320e-07
 Reference value :  7.50698e-07
 Reference value :  7.51020e-07
 Reference value :  7.51567e-07
 Reference value :  7.52060e-07
 Reference value :  7.52584e-07
 Reference value :  7.53359e-07
 Reference value :  7.53869e-07
 Reference value :  7.54453e-07
 Reference value :  7.55027e-07
 Reference value :  7.55632e-07
 Reference value :  7.56457e-07
 Reference value :  7.57322e-07
 Reference value :  7.59219e-07
 Reference value :  7.60569e-07
 Reference value :  7.62086e-07
 Reference value :  7.64860e-07
 Reference value :  7.68536e-07
 Reference value :  7.90595e-07
 Reference value :  8.78830e-07
 Reference value :  1.00000e-06
 Reference value :  1.00001e-06
 Reference value :  1.00003e-06
 Reference value :  1.00010e-06
 Reference value :  1.00011e-06
 Reference value :  1.00016e-06
 Reference value :  1.00022e-06
 Reference value :  1.00052e-06
 Reference value :  1.00086e-06
 Reference value :  1.00131e-06
 Reference value :  1.00182e-06
 Reference value :  1.00231e-06
 Reference value :  1.00278e-06
 Reference value :  1.00334e-06
 Reference value :  1.00393e-06
 Reference value :  1.00457e-06
 Reference value :  1.00519e-06
 Reference value :  1.00576e-06
 Reference value :  1.00641e-06
 Reference value :  1.00818e-06
 Reference value :  1.00935e-06
 Reference value :  1.01043e-06
 Reference value :  1.01147e-06
 Reference value :  1.01263e-06
 Reference value :  1.01351e-06
 Reference value :  1.01437e-06
 Reference value :  1.01535e-06
 Reference value :  1.01636e-06
 Reference value :  1.01736e-06
 Reference value :  1.01851e-06
 Reference value :  1.01971e-06
 Reference value :  1.02156e-06
 Reference value :  1.02769e-06
 Reference value :  1.03539e-06
 Reference value :  1.04765e-06
 Reference value :  1.07216e-06
 Reference value :  1.12118e-06
 Reference value :  1.23623e-06
 Reference value :  1.25010e-06
 Reference value :  1.25011e-06
 Reference value :  1.25013e-06
 Reference value :  1.25017e-06
 Reference value :  1.25021e-06
 Reference value :  1.25022e-06
 Reference value :  1.25026e-06
 Reference value :  1.25032e-06
 Reference value :  1.25045e-06
 Reference value :  1.25102e-06
 Reference value :  1.25151e-06
 Reference value :  1.25252e-06
 Reference value :  1.25327e-06
 Reference value :  1.25379e-06
 Reference value :  1.25439e-06
 Reference value :  1.25498e-06
 Reference value :  1.25561e-06
 Reference value :  1.25646e-06
 Reference value :  1.25774e-06
 Reference value :  1.25930e-06
 Reference value :  1.26195e-06
 Reference value :  1.26543e-06
 Reference value :  1.27090e-06
 Reference value :  1.27689e-06
 Reference value :  1.30507e-06
 Reference value :  1.34264e-06
 Reference value :  1.41778e-06
 Reference value :  1.50000e-06
 Reference value :  1.50001e-06
 Reference value :  1.50007e-06
 Reference value :  1.50010e-06
 Reference value :  1.50012e-06
 Reference value :  1.50016e-06
 Reference value :  1.50022e-06
 Reference value :  1.50034e-06
 Reference value :  1.50052e-06
 Reference value :  1.50086e-06
 Reference value :  1.50131e-06
 Reference value :  1.50231e-06
 Reference value :  1.50278e-06
 Reference value :  1.50333e-06
 Reference value :  1.50391e-06
 Reference value :  1.50455e-06
 Reference value :  1.50549e-06
 Reference value :  1.50638e-06
 Reference value :  1.50718e-06
 Reference value :  1.50805e-06
 Reference value :  1.50888e-06
 Reference value :  1.50982e-06
 Reference value :  1.51087e-06
 Reference value :  1.51425e-06
 Reference value :  1.51876e-06
 Reference value :  1.54560e-06
 Reference value :  1.65296e-06
 Reference value :  1.75011e-06
 Reference value :  1.75017e-06
 Reference value :  1.75020e-06
 Reference value :  1.75022e-06
 Reference value :  1.75026e-06
 Reference value :  1.75032e-06
 Reference value :  1.75045e-06
 Reference value :  1.75070e-06
 Reference value :  1.75101e-06
 Reference value :  1.75156e-06
 Reference value :  1.75205e-06
 Reference value :  1.75258e-06
 Reference value :  1.75335e-06
 Reference value :  1.75386e-06
 Reference value :  1.75444e-06
 Reference value :  1.75500e-06
 Reference value :  1.75645e-06
 Reference value :  1.75736e-06
 Reference value :  1.76144e-06
 Reference value :  1.76516e-06
 Reference value :  1.78672e-06
 Reference value :  1.81547e-06
 Reference value :  1.98797e-06
 Reference value :  2.00001e-06
 Reference value :  2.00003e-06
 Reference value :  2.00010e-06
 Reference value :  2.00012e-06
 Reference value :  2.00022e-06
 Reference value :  2.00052e-06
 Reference value :  2.00086e-06
 Reference value :  2.00182e-06
 Reference value :  2.00231e-06
 Reference value :  2.00278e-06
 Reference value :  2.00332e-06
 Reference value :  2.00390e-06
 Reference value :  2.00449e-06
 Reference value :  2.00521e-06
 Reference value :  2.00584e-06
 Reference value :  2.00650e-06
 Reference value :  2.00747e-06
 Reference value :  2.00836e-06
 Reference value :  2.00975e-06
 Reference value :  2.01132e-06
 Reference value :  2.01278e-06
 Reference value :  2.01389e-06
 Reference value :  2.01496e-06
 Reference value :  2.01611e-06
 Reference value :  2.01715e-06
 Reference value :  2.01824e-06
 Reference value :  2.01944e-06
 Reference value :  2.02134e-06
 Reference value :  2.02651e-06
 Reference value :  2.03648e-06
 Reference value :  2.04034e-06
 Reference value :  2.04398e-06
 Reference value :  2.04795e-06
 Reference value :  2.05106e-06
 Reference value :  2.05434e-06
 Reference value :  2.05750e-06
 Reference value :  2.06118e-06
 Reference value :  2.06683e-06
 Reference value :  2.07853e-06
 Reference value :  2.09363e-06
 Reference value :  2.13203e-06
 Reference value :  2.25010e-06
 Reference value :  2.25011e-06
 Reference value :  2.25017e-06
 Reference value :  2.25021e-06
 Reference value :  2.25026e-06
 Reference value :  2.25045e-06
 Reference value :  2.25070e-06
 Reference value :  2.25101e-06
 Reference value :  2.25151e-06
 Reference value :  2.25203e-06
 Reference value :  2.25326e-06
 Reference value :  2.25376e-06
 Reference value :  2.25433e-06
 Reference value :  2.25495e-06
 Reference value :  2.25559e-06
 Reference value :  2.25641e-06
 Reference value :  2.25788e-06
 Reference value :  2.26217e-06
 Reference value :  2.26546e-06
 Reference value :  2.27204e-06
 Reference value :  2.31156e-06
 Reference value :  2.36424e-06
 Reference value :  2.50000e-06
 Reference value :  2.50001e-06
 Reference value :  2.50003e-06
 Reference value :  2.50007e-06
 Reference value :  2.50010e-06
 Reference value :  2.50011e-06
 Reference value :  2.50012e-06
 Reference value :  2.50016e-06
 Reference value :  2.50022e-06
 Reference value :  2.50034e-06
 Reference value :  2.50052e-06
 Reference value :  2.50086e-06
 Reference value :  2.50131e-06
 Reference value :  2.50175e-06
 Reference value :  2.50223e-06
 Reference value :  2.50268e-06
 Reference value :  2.50322e-06
 Reference value :  2.50379e-06
 Reference value :  2.50442e-06
 Reference value :  2.50521e-06
 Reference value :  2.50604e-06
 Reference value :  2.50673e-06
 Reference value :  2.50746e-06
 Reference value :  2.50840e-06
 Reference value :  2.50937e-06
 Reference value :  2.51032e-06
 Reference value :  2.51146e-06
 Reference value :  2.51272e-06
 Reference value :  2.51516e-06
 Reference value :  2.51867e-06
 Reference value :  2.52506e-06
 Reference value :  2.53626e-06
 Reference value :  2.55542e-06
 Reference value :  2.59375e-06
 Reference value :  2.67040e-06
 Reference value :  2.75010e-06
 Reference value :  2.75011e-06
 Reference value :  2.75013e-06
 Reference value :  2.75017e-06
 Reference value :  2.75020e-06
 Reference value :  2.75021e-06
 Reference value :  2.75022e-06
 Reference value :  2.75026e-06
 Reference value :  2.75032e-06
 Reference value :  2.75045e-06
 Reference value :  2.75070e-06
 Reference value :  2.75101e-06
 Reference value :  2.75150e-06
 Reference value :  2.75202e-06
 Reference value :  2.75252e-06
 Reference value :  2.75326e-06
 Reference value :  2.75378e-06
 Reference value :  2.75437e-06
 Reference value :  2.75490e-06
 Reference value :  2.75549e-06
 Reference value :  2.75628e-06
 Reference value :  2.75713e-06
 Reference value :  2.75794e-06
 Reference value :  2.75895e-06
 Reference value :  2.76020e-06
 Reference value :  2.76167e-06
 Reference value :  2.76412e-06
 Reference value :  2.76713e-06
 Reference value :  2.78170e-06
 Reference value :  2.79617e-06
 Reference value :  2.82104e-06
 Reference value :  2.87077e-06
 Reference value :  2.96699e-06
 Reference value :  3.00000e-06
 Reference value :  3.00001e-06
 Reference value :  3.00003e-06
 Reference value :  3.00007e-06
 Reference value :  3.00010e-06
 Reference value :  3.00011e-06
 Reference value :  3.00012e-06
 Reference value :  3.00016e-06
 Reference value :  3.00022e-06
 Reference value :  3.00034e-06
 Reference value :  3.00052e-06
 Reference value :  3.00086e-06
 Reference value :  3.00131e-06
 Reference value :  3.00182e-06
 Reference value :  3.00231e-06
 Reference value :  3.00278e-06
 Reference value :  3.00334e-06
 Reference value :  3.00393e-06
 Reference value :  3.00457e-06
 Reference value :  3.00518e-06
 Reference value :  3.00575e-06
 Reference value :  3.00641e-06
 Reference value :  3.00725e-06
 Reference value :  3.00817e-06
 Reference value :  3.00935e-06
 Reference value :  3.01043e-06
 Reference value :  3.01146e-06
 Reference value :  3.01263e-06
 Reference value :  3.01351e-06
 Reference value :  3.01437e-06
 Reference value :  3.01535e-06
 Reference value :  3.01636e-06
 Reference value :  3.01736e-06
 Reference value :  3.01851e-06
 Reference value :  3.01971e-06
 Reference value :  3.02157e-06
 Reference value :  3.02361e-06
 Reference value :  3.02768e-06
 Reference value :  3.04746e-06
 Reference value :  3.06312e-06
 Reference value :  3.09157e-06
 Reference value :  3.12918e-06
 Reference value :  3.16948e-06
 Reference value :  3.21301e-06
 Reference value :  3.25010e-06
 Reference value :  3.25011e-06
 Reference value :  3.25013e-06
 Reference value :  3.25017e-06
 Reference value :  3.25020e-06
 Reference value :  3.25022e-06
 Reference value :  3.25032e-06
 Reference value :  3.25045e-06
 Reference value :  3.25070e-06
 Reference value :  3.25101e-06
 Reference value :  3.25150e-06
 Reference value :  3.25202e-06
 Reference value :  3.25251e-06
 Reference value :  3.25326e-06
 Reference value :  3.25378e-06
 Reference value :  3.25436e-06
 Reference value :  3.25495e-06
 Reference value :  3.25557e-06
 Reference value :  3.25641e-06
 Reference value :  3.25771e-06
 Reference value :  3.25922e-06
 Reference value :  3.26520e-06
 Reference value :  3.27190e-06
 Reference value :  3.31207e-06
 Reference value :  3.47276e-06
 Reference value :  3.50000e-06
 Reference value :  3.50003e-06
 Reference value :  3.50007e-06
 Reference value :  3.50010e-06
 Reference value :  3.50011e-06
 Reference value :  3.50012e-06
 Reference value :  3.50016e-06
 Reference value :  3.50034e-06
 Reference value :  3.50052e-06
 Reference value :  3.50086e-06
 Reference value :  3.50131e-06
 Reference value :  3.50175e-06
 Reference value :  3.50223e-06
 Reference value :  3.50268e-06
 Reference value :  3.50322e-06
 Reference value :  3.50379e-06
 Reference value :  3.50442e-06
 Reference value :  3.50521e-06
 Reference value :  3.50604e-06
 Reference value :  3.50673e-06
 Reference value :  3.50746e-06
 Reference value :  3.50839e-06
 Reference value :  3.50937e-06
 Reference value :  3.51032e-06
 Reference value :  3.51145e-06
 Reference value :  3.51272e-06
 Reference value :  3.51515e-06
 Reference value :  3.51864e-06
 Reference value :  3.52499e-06
 Reference value :  3.53609e-06
 Reference value :  3.55506e-06
 Reference value :  3.59300e-06
 Reference value :  3.66888e-06
 Reference value :  3.75010e-06
 Reference value :  3.75011e-06
 Reference value :  3.75013e-06
 Reference value :  3.75017e-06
 Reference value :  3.75020e-06
 Reference value :  3.75021e-06
 Reference value :  3.75022e-06
 Reference value :  3.75026e-06
 Reference value :  3.75032e-06
 Reference value :  3.75045e-06
 Reference value :  3.75070e-06
 Reference value :  3.75101e-06
 Reference value :  3.75150e-06
 Reference value :  3.75202e-06
 Reference value :  3.75251e-06
 Reference value :  3.75326e-06
 Reference value :  3.75378e-06
 Reference value :  3.75437e-06
 Reference value :  3.75490e-06
 Reference value :  3.75549e-06
 Reference value :  3.75627e-06
 Reference value :  3.75712e-06
 Reference value :  3.75793e-06
 Reference value :  3.75894e-06
 Reference value :  3.76018e-06
 Reference value :  3.76166e-06
 Reference value :  3.76408e-06
 Reference value :  3.76709e-06
 Reference value :  3.77310e-06
 Reference value :  3.78156e-06
 Reference value :  3.82019e-06
 Reference value :  3.96303e-06
 Reference value :  4.00000e-06
 Reference value :  4.00003e-06
 Reference value :  4.00007e-06
 Reference value :  4.00011e-06
 Reference value :  4.00012e-06
 Reference value :  4.00016e-06
 Reference value :  4.00022e-06
 Reference value :  4.00034e-06
 Reference value :  4.00052e-06
 Reference value :  4.00086e-06
 Reference value :  4.00131e-06
 Reference value :  4.00182e-06
 Reference value :  4.00231e-06
 Reference value :  4.00278e-06
 Reference value :  4.00334e-06
 Reference value :  4.00393e-06
 Reference value :  4.00457e-06
 Reference value :  4.00518e-06
 Reference value :  4.00575e-06
 Reference value :  4.00641e-06
 Reference value :  4.00725e-06
 Reference value :  4.00817e-06
 Reference value :  4.00935e-06
 Reference value :  4.01043e-06
 Reference value :  4.01146e-06
 Reference value :  4.01263e-06
 Reference value :  4.01350e-06
 Reference value :  4.01436e-06
 Reference value :  4.01534e-06
 Reference value :  4.01636e-06
 Reference value :  4.01735e-06
 Reference value :  4.01850e-06
 Reference value :  4.01969e-06
 Reference value :  4.02357e-06
 Reference value :  4.02761e-06
 Reference value :  4.03506e-06
 Reference value :  4.05436e-06
 Reference value :  4.06364e-06
 Reference value :  4.06964e-06
 Reference value :  4.07567e-06
 Reference value :  4.07947e-06
 Reference value :  4.09291e-06
 Reference value :  4.12181e-06
 Reference value :  4.14938e-06
 Reference value :  4.22136e-06
 Reference value :  4.25010e-06
 Reference value :  4.25011e-06
 Reference value :  4.25013e-06
 Reference value :  4.25017e-06
 Reference value :  4.25020e-06
 Reference value :  4.25022e-06
 Reference value :  4.25026e-06
 Reference value :  4.25032e-06
 Reference value :  4.25045e-06
 Reference value :  4.25070e-06
 Reference value :  4.25101e-06
 Reference value :  4.25150e-06
 Reference value :  4.25202e-06
 Reference value :  4.25251e-06
 Reference value :  4.25325e-06
 Reference value :  4.25377e-06
 Reference value :  4.25434e-06
 Reference value :  4.25494e-06
 Reference value :  4.25556e-06
 Reference value :  4.25774e-06
 Reference value :  4.25920e-06
 Reference value :  4.26189e-06
 Reference value :  4.26443e-06
 Reference value :  4.26751e-06
 Reference value :  4.27652e-06
 Reference value :  4.29937e-06
 Reference value :  4.31322e-06
 Reference value :  4.32678e-06
 Reference value :  4.34253e-06
 Reference value :  4.35855e-06
 Reference value :  4.39059e-06
 Reference value :  4.42548e-06
 Reference value :  4.49030e-06
 Reference value :  4.50000e-06
 Reference value :  4.50001e-06
 Reference value :  4.50003e-06
 Reference value :  4.50007e-06
 Reference value :  4.50010e-06
 Reference value :  4.50011e-06
 Reference value :  4.50012e-06
 Reference value :  4.50016e-06
 Reference value :  4.50022e-06
 Reference value :  4.50034e-06
 Reference value :  4.50052e-06
 Reference value :  4.50086e-06
 Reference value :  4.50131e-06
 Reference value :  4.50175e-06
 Reference value :  4.50223e-06
 Reference value :  4.50268e-06
 Reference value :  4.50322e-06
 Reference value :  4.50379e-06
 Reference value :  4.50442e-06
 Reference value :  4.50522e-06
 Reference value :  4.50604e-06
 Reference value :  4.50673e-06
 Reference value :  4.50746e-06
 Reference value :  4.50840e-06
 Reference value :  4.50937e-06
 Reference value :  4.51146e-06
 Reference value :  4.51515e-06
 Reference value :  4.52491e-06
 Reference value :  4.53590e-06
 Reference value :  4.59207e-06
 Reference value :  4.75010e-06
 Reference value :  4.75011e-06
 Reference value :  4.75013e-06
 Reference value :  4.75017e-06
 Reference value :  4.75020e-06
 Reference value :  4.75022e-06
 Reference value :  4.75032e-06
 Reference value :  4.75045e-06
 Reference value :  4.75070e-06
 Reference value :  4.75150e-06
 Reference value :  4.75202e-06
 Reference value :  4.75251e-06
 Reference value :  4.75325e-06
 Reference value :  4.75377e-06
 Reference value :  4.75437e-06
 Reference value :  4.75490e-06
 Reference value :  4.75548e-06
 Reference value :  4.75627e-06
 Reference value :  4.75711e-06
 Reference value :  4.75793e-06
 Reference value :  4.76017e-06
 Reference value :  4.76407e-06
 Reference value :  4.77307e-06
 Reference value :  4.79584e-06
 Reference value :  4.81976e-06
 Reference value :  4.96096e-06
 Reference value :  5.00001e-06
 Reference value :  5.00003e-06
 Reference value :  5.00010e-06
 Reference value :  5.00011e-06
 Reference value :  5.00012e-06
 Reference value :  5.00016e-06
 Reference value :  5.00034e-06
 Reference value :  5.00052e-06
 Reference value :  5.00086e-06
 Reference value :  5.00131e-06
 Reference value :  5.00182e-06
 Reference value :  5.00231e-06
 Reference value :  5.00278e-06
 Reference value :  5.00334e-06
 Reference value :  5.00393e-06
 Reference value :  5.00457e-06
 Reference value :  5.00518e-06
 Reference value :  5.00575e-06
 Reference value :  5.00725e-06
 Reference value :  5.00817e-06
 Reference value :  5.00935e-06
 Reference value :  5.01043e-06
 Reference value :  5.01146e-06
 Reference value :  5.01263e-06
 Reference value :  5.01350e-06
 Reference value :  5.01434e-06
 Reference value :  5.01545e-06
 Reference value :  5.01644e-06
 Reference value :  5.01751e-06
 Reference value :  5.01873e-06
 Reference value :  5.02192e-06
 Reference value :  5.02438e-06
 Reference value :  5.02674e-06
 Reference value :  5.02860e-06
 Reference value :  5.03042e-06
 Reference value :  5.03219e-06
 Reference value :  5.03399e-06
 Reference value :  5.03589e-06
 Reference value :  5.04276e-06
 Reference value :  5.05872e-06
 Reference value :  5.07146e-06
 Reference value :  5.08414e-06
 Reference value :  5.12200e-06
 Reference value :  5.15738e-06
 Reference value :  5.22814e-06
 Reference value :  5.25010e-06
 Reference value :  5.25011e-06
 Reference value :  5.25013e-06
 Reference value :  5.25017e-06
 Reference value :  5.25020e-06
 Reference value :  5.25021e-06
 Reference value :  5.25022e-06
 Reference value :  5.25026e-06
 Reference value :  5.25032e-06
 Reference value :  5.25045e-06
 Reference value :  5.25070e-06
 Reference value :  5.25101e-06
 Reference value :  5.25150e-06
 Reference value :  5.25202e-06
 Reference value :  5.25251e-06
 Reference value :  5.25325e-06
 Reference value :  5.25378e-06
 Reference value :  5.25439e-06
 Reference value :  5.25497e-06
 Reference value :  5.25559e-06
 Reference value :  5.25647e-06
 Reference value :  5.25768e-06
 Reference value :  5.25927e-06
 Reference value :  5.26184e-06
 Reference value :  5.26535e-06
 Reference value :  5.27237e-06
 Reference value :  5.28642e-06
 Reference value :  5.31452e-06
 Reference value :  5.37073e-06
 Reference value :  5.48313e-06
 Reference value :  5.50000e-06
 Reference value :  5.50001e-06
 Reference value :  5.50003e-06
 Reference value :  5.50007e-06
 Reference value :  5.50010e-06
 Reference value :  5.50011e-06
 Reference value :  5.50012e-06
 Reference value :  5.50016e-06
 Reference value :  5.50022e-06
 Reference value :  5.50034e-06
 Reference value :  5.50052e-06
 Reference value :  5.50086e-06
 Reference value :  5.50131e-06
 Reference value :  5.50182e-06
 Reference value :  5.50231e-06
 Reference value :  5.50278e-06
 Reference value :  5.50333e-06
 Reference value :  5.50391e-06
 Reference value :  5.50455e-06
 Reference value :  5.50549e-06
 Reference value :  5.50638e-06
 Reference value :  5.50718e-06
 Reference value :  5.50805e-06
 Reference value :  5.50889e-06
 Reference value :  5.50982e-06
 Reference value :  5.51087e-06
 Reference value :  5.51200e-06
 Reference value :  5.51875e-06
 Reference value :  5.54550e-06
 Reference value :  5.58116e-06
 Reference value :  5.65248e-06
 Reference value :  5.75010e-06
 Reference value :  5.75011e-06
 Reference value :  5.75013e-06
 Reference value :  5.75017e-06
 Reference value :  5.75020e-06
 Reference value :  5.75021e-06
 Reference value :  5.75022e-06
 Reference value :  5.75032e-06
 Reference value :  5.75070e-06
 Reference value :  5.75101e-06
 Reference value :  5.75150e-06
 Reference value :  5.75202e-06
 Reference value :  5.75251e-06
 Reference value :  5.75325e-06
 Reference value :  5.75377e-06
 Reference value :  5.75437e-06
 Reference value :  5.75490e-06
 Reference value :  5.75548e-06
 Reference value :  5.75626e-06
 Reference value :  5.75711e-06
 Reference value :  5.75877e-06
 Reference value :  5.76087e-06
 Reference value :  5.76411e-06
 Reference value :  5.78136e-06
 Reference value :  5.80436e-06
 Reference value :  5.94234e-06
 Reference value :  6.00000e-06
 Reference value :  6.00003e-06
 Reference value :  6.00007e-06
 Reference value :  6.00011e-06
 Reference value :  6.00016e-06
 Reference value :  6.00022e-06
 Reference value :  6.00034e-06
 Reference value :  6.00052e-06
 Reference value :  6.00086e-06
 Reference value :  6.00131e-06
 Reference value :  6.00182e-06
 Reference value :  6.00231e-06
 Reference value :  6.00278e-06
 Reference value :  6.00332e-06
 Reference value :  6.00390e-06
 Reference value :  6.00449e-06
 Reference value :  6.00521e-06
 Reference value :  6.00584e-06
 Reference value :  6.00650e-06
 Reference value :  6.00747e-06
 Reference value :  6.00837e-06
 Reference value :  6.00976e-06
 Reference value :  6.01132e-06
 Reference value :  6.01278e-06
 Reference value :  6.01389e-06
 Reference value :  6.01496e-06
 Reference value :  6.01611e-06
 Reference value :  6.01716e-06
 Reference value :  6.01825e-06
 Reference value :  6.01944e-06
 Reference value :  6.02135e-06
 Reference value :  6.02653e-06
 Reference value :  6.03178e-06
 Reference value :  6.03981e-06
 Reference value :  6.04937e-06
 Reference value :  6.06352e-06
 Reference value :  6.12837e-06
 Reference value :  6.25010e-06
 Reference value :  6.25011e-06
 Reference value :  6.25013e-06
 Reference value :  6.25017e-06
 Reference value :  6.25020e-06
 Reference value :  6.25022e-06
 Reference value :  6.25026e-06
 Reference value :  6.25032e-06
 Reference value :  6.25045e-06
 Reference value :  6.25070e-06
 Reference value :  6.25101e-06
 Reference value :  6.25150e-06
 Reference value :  6.25202e-06
 Reference value :  6.25251e-06
 Reference value :  6.25325e-06
 Reference value :  6.25378e-06
 Reference value :  6.25439e-06
 Reference value :  6.25497e-06
 Reference value :  6.25559e-06
 Reference value :  6.25647e-06
 Reference value :  6.25767e-06
 Reference value :  6.25927e-06
 Reference value :  6.26534e-06
 Reference value :  6.27237e-06
 Reference value :  6.28644e-06
 Reference value :  6.37084e-06
 Reference value :  6.48337e-06
 Reference value :  6.50001e-06
 Reference value :  6.50003e-06
 Reference value :  6.50007e-06
 Reference value :  6.50010e-06
 Reference value :  6.50011e-06
 Reference value :  6.50012e-06
 Reference value :  6.50022e-06
 Reference value :  6.50034e-06
 Reference value :  6.50086e-06
 Reference value :  6.50131e-06
 Reference value :  6.50182e-06
 Reference value :  6.50231e-06
 Reference value :  6.50278e-06
 Reference value :  6.50333e-06
 Reference value :  6.50391e-06
 Reference value :  6.50455e-06
 Reference value :  6.50550e-06
 Reference value :  6.50639e-06
 Reference value :  6.50719e-06
 Reference value :  6.50806e-06
 Reference value :  6.50889e-06
 Reference value :  6.50983e-06
 Reference value :  6.51088e-06
 Reference value :  6.51425e-06
 Reference value :  6.52767e-06
 Reference value :  6.54550e-06
 Reference value :  6.65250e-06
 Reference value :  6.75011e-06
 Reference value :  6.75013e-06
 Reference value :  6.75017e-06
 Reference value :  6.75020e-06
 Reference value :  6.75022e-06
 Reference value :  6.75026e-06
 Reference value :  6.75032e-06
 Reference value :  6.75045e-06
 Reference value :  6.75070e-06
 Reference value :  6.75101e-06
 Reference value :  6.75150e-06
 Reference value :  6.75202e-06
 Reference value :  6.75251e-06
 Reference value :  6.75325e-06
 Reference value :  6.75377e-06
 Reference value :  6.75436e-06
 Reference value :  6.75490e-06
 Reference value :  6.75548e-06
 Reference value :  6.75626e-06
 Reference value :  6.75711e-06
 Reference value :  6.75877e-06
 Reference value :  6.76087e-06
 Reference value :  6.76985e-06
 Reference value :  6.80435e-06
 Reference value :  6.85034e-06
 Reference value :  7.00000e-06
 Reference value :  7.00001e-06
 Reference value :  7.00003e-06
 Reference value :  7.00007e-06
 Reference value :  7.00011e-06
 Reference value :  7.00016e-06
 Reference value :  7.00034e-06
 Reference value :  7.00052e-06
 Reference value :  7.00086e-06
 Reference value :  7.00131e-06
 Reference value :  7.00182e-06
 Reference value :  7.00231e-06
 Reference value :  7.00278e-06
 Reference value :  7.00332e-06
 Reference value :  7.00390e-06
 Reference value :  7.00449e-06
 Reference value :  7.00521e-06
 Reference value :  7.00584e-06
 Reference value :  7.00650e-06
 Reference value :  7.00747e-06
 Reference value :  7.00837e-06
 Reference value :  7.00976e-06
 Reference value :  7.01132e-06
 Reference value :  7.01278e-06
 Reference value :  7.01389e-06
 Reference value :  7.01496e-06
 Reference value :  7.01611e-06
 Reference value :  7.01716e-06
 Reference value :  7.01825e-06
 Reference value :  7.01944e-06
 Reference value :  7.02136e-06
 Reference value :  7.02309e-06
 Reference value :  7.02655e-06
 Reference value :  7.03181e-06
 Reference value :  7.05453e-06
 Reference value :  7.08180e-06
 Reference value :  7.11875e-06
 Reference value :  7.16844e-06
 Reference value :  7.25010e-06
 Reference value :  7.25011e-06
 Reference value :  7.25017e-06
 Reference value :  7.25020e-06
 Reference value :  7.25021e-06
 Reference value :  7.25026e-06
 Reference value :  7.25032e-06
 Reference value :  7.25045e-06
 Reference value :  7.25070e-06
 Reference value :  7.25101e-06
 Reference value :  7.25150e-06
 Reference value :  7.25202e-06
 Reference value :  7.25251e-06
 Reference value :  7.25325e-06
 Reference value :  7.25378e-06
 Reference value :  7.25438e-06
 Reference value :  7.25497e-06
 Reference value :  7.25559e-06
 Reference value :  7.25647e-06
 Reference value :  7.25767e-06
 Reference value :  7.25926e-06
 Reference value :  7.26181e-06
 Reference value :  7.26532e-06
 Reference value :  7.27233e-06
 Reference value :  7.28635e-06
 Reference value :  7.31440e-06
 Reference value :  7.37050e-06
 Reference value :  7.48270e-06
 Reference value :  7.50001e-06
 Reference value :  7.50003e-06
 Reference value :  7.50007e-06
 Reference value :  7.50011e-06
 Reference value :  7.50012e-06
 Reference value :  7.50016e-06
 Reference value :  7.50022e-06
 Reference value :  7.50034e-06
 Reference value :  7.50052e-06
 Reference value :  7.50086e-06
 Reference value :  7.50131e-06
 Reference value :  7.50182e-06
 Reference value :  7.50231e-06
 Reference value :  7.50333e-06
 Reference value :  7.50391e-06
 Reference value :  7.50455e-06
 Reference value :  7.50550e-06
 Reference value :  7.50639e-06
 Reference value :  7.50719e-06
 Reference value :  7.50806e-06
 Reference value :  7.50889e-06
 Reference value :  7.50983e-06
 Reference value :  7.51088e-06
 Reference value :  7.51425e-06
 Reference value :  7.51875e-06
 Reference value :  7.54550e-06
 Reference value :  7.58115e-06
 Reference value :  7.75010e-06
 Reference value :  7.75013e-06
 Reference value :  7.75017e-06
 Reference value :  7.75020e-06
 Reference value :  7.75021e-06
 Reference value :  7.75022e-06
 Reference value :  7.75026e-06
 Reference value :  7.75032e-06
 Reference value :  7.75045e-06
 Reference value :  7.75070e-06
 Reference value :  7.75101e-06
 Reference value :  7.75150e-06
 Reference value :  7.75202e-06
 Reference value :  7.75251e-06
 Reference value :  7.75325e-06
 Reference value :  7.75377e-06
 Reference value :  7.75436e-06
 Reference value :  7.75489e-06
 Reference value :  7.75547e-06
 Reference value :  7.75625e-06
 Reference value :  7.75710e-06
 Reference value :  7.75876e-06
 Reference value :  7.76406e-06
 Reference value :  7.76977e-06
 Reference value :  7.78119e-06
 Reference value :  7.80402e-06
 Reference value :  7.84968e-06
 Reference value :  7.94101e-06
 Reference value :  8.00000e-06
 Reference value :  8.00001e-06
 Reference value :  8.00003e-06
 Reference value :  8.00007e-06
 Reference value :  8.00010e-06
 Reference value :  8.00011e-06
 Reference value :  8.00012e-06
 Reference value :  8.00016e-06
 Reference value :  8.00022e-06
 Reference value :  8.00034e-06
 Reference value :  8.00052e-06
 Reference value :  8.00086e-06
 Reference value :  8.00131e-06
 Reference value :  8.00182e-06
 Reference value :  8.00231e-06
 Reference value :  8.00332e-06
 Reference value :  8.00449e-06
 Reference value :  8.00584e-06
 Reference value :  8.00747e-06
 Reference value :  8.00925e-06
 Reference value :  8.01026e-06
 Reference value :  8.01369e-06
 Reference value :  8.04101e-06
 Reference value :  8.25010e-06
 Reference value :  8.25013e-06
 Reference value :  8.25020e-06
 Reference value :  8.25026e-06
 Reference value :  8.25070e-06
 Reference value :  8.25150e-06
 Reference value :  8.25251e-06
 Reference value :  8.25400e-06
 Reference value :  8.25697e-06
 Reference value :  8.26319e-06
 Reference value :  8.33487e-06
No. of Data Rows : 1231
ngspice-44 done
