
Note: Compatibility modes selected: hs a


Circuit: ** sch_path: /home/ece/cace/sar-adc-using-sky130-pdk/runs/run_2025-09-13_01-16-02/parameters/dnl/run_4/sar_output_dnl.sch

option SCALE: Scale is set to 1e-06 for instance and model parameters
option SCALE: Scale is set to 1e-06 for instance and model parameters
option SCALE: Scale is set to 1e-06 for instance and model parameters
option SCALE: Scale is set to 1e-06 for instance and model parameters
Doing analysis at TEMP = 27.000000 and TNOM = 27.000000

Using KLU as Direct Linear Solver
Operating point simulation skipped by 'uic',
  now using transient initial conditions.
 Reference value :  1.00000e-12
 Reference value :  1.02800e-12
 Reference value :  1.19600e-12
 Reference value :  1.68890e-12
 Reference value :  3.20522e-12
 Reference value :  9.29140e-12
 Reference value :  3.19331e-11
 Reference value :  1.00000e-10
 Reference value :  1.33530e-10
 Reference value :  6.57268e-10
 Reference value :  2.48521e-09
 Reference value :  6.10760e-09
 Reference value :  8.31958e-09
 Reference value :  1.05935e-08
 Reference value :  1.33613e-08
 Reference value :  1.70829e-08
 Reference value :  4.29098e-08
 Reference value :  2.12391e-07
 Reference value :  2.50170e-07
 Reference value :  2.50252e-07
 Reference value :  2.50914e-07
 Reference value :  2.52082e-07
 Reference value :  2.53967e-07
 Reference value :  2.56689e-07
 Reference value :  2.80151e-07
 Reference value :  5.00030e-07
 Reference value :  5.00156e-07
 Reference value :  5.00825e-07
 Reference value :  5.01283e-07
 Reference value :  5.02189e-07
 Reference value :  5.03256e-07
 Reference value :  5.04511e-07
 Reference value :  5.07341e-07
 Reference value :  5.10263e-07
 Reference value :  5.13079e-07
 Reference value :  5.16412e-07
 Reference value :  5.34407e-07
 Reference value :  7.50130e-07
 Reference value :  7.50255e-07
 Reference value :  7.50948e-07
 Reference value :  7.51856e-07
 Reference value :  7.53778e-07
 Reference value :  7.55090e-07
 Reference value :  7.56662e-07
 Reference value :  7.72873e-07
 Reference value :  9.19231e-07
 Reference value :  1.00007e-06
 Reference value :  1.00022e-06
 Reference value :  1.00128e-06
 Reference value :  1.00268e-06
 Reference value :  1.00441e-06
 Reference value :  1.00557e-06
 Reference value :  1.00843e-06
 Reference value :  1.01278e-06
 Reference value :  1.01603e-06
 Reference value :  1.01938e-06
 Reference value :  1.05862e-06
 Reference value :  1.19815e-06
 Reference value :  1.24177e-06
 Reference value :  1.25013e-06
 Reference value :  1.25022e-06
 Reference value :  1.25069e-06
 Reference value :  1.25185e-06
 Reference value :  1.25373e-06
 Reference value :  1.25577e-06
 Reference value :  1.25940e-06
 Reference value :  1.27637e-06
 Reference value :  1.30052e-06
 Reference value :  1.50000e-06
 Reference value :  1.50011e-06
 Reference value :  1.50034e-06
 Reference value :  1.50129e-06
 Reference value :  1.50218e-06
 Reference value :  1.50473e-06
 Reference value :  1.50734e-06
 Reference value :  1.51003e-06
 Reference value :  1.54745e-06
 Reference value :  1.75017e-06
 Reference value :  1.75044e-06
 Reference value :  1.75138e-06
 Reference value :  1.75377e-06
 Reference value :  1.75577e-06
 Reference value :  1.75844e-06
 Reference value :  1.77537e-06
 Reference value :  2.00003e-06
 Reference value :  2.00022e-06
 Reference value :  2.00128e-06
 Reference value :  2.00329e-06
 Reference value :  2.00499e-06
 Reference value :  2.00609e-06
 Reference value :  2.00973e-06
 Reference value :  2.01284e-06
 Reference value :  2.01547e-06
 Reference value :  2.01963e-06
 Reference value :  2.03762e-06
 Reference value :  2.04927e-06
 Reference value :  2.07355e-06
 Reference value :  2.25010e-06
 Reference value :  2.25020e-06
 Reference value :  2.25068e-06
 Reference value :  2.25185e-06
 Reference value :  2.25378e-06
 Reference value :  2.25570e-06
 Reference value :  2.26143e-06
 Reference value :  2.41296e-06
 Reference value :  2.50010e-06
 Reference value :  2.50050e-06
 Reference value :  2.50219e-06
 Reference value :  2.50382e-06
 Reference value :  2.50616e-06
 Reference value :  2.50818e-06
 Reference value :  2.51158e-06
 Reference value :  2.54489e-06
 Reference value :  2.75011e-06
 Reference value :  2.75022e-06
 Reference value :  2.75068e-06
 Reference value :  2.75185e-06
 Reference value :  2.75440e-06
 Reference value :  2.75926e-06
 Reference value :  2.84282e-06
 Reference value :  3.00007e-06
 Reference value :  3.00022e-06
 Reference value :  3.00128e-06
 Reference value :  3.00329e-06
 Reference value :  3.00498e-06
 Reference value :  3.00609e-06
 Reference value :  3.00999e-06
 Reference value :  3.01280e-06
 Reference value :  3.01603e-06
 Reference value :  3.01938e-06
 Reference value :  3.05881e-06
 Reference value :  3.25010e-06
 Reference value :  3.25022e-06
 Reference value :  3.25095e-06
 Reference value :  3.25236e-06
 Reference value :  3.25439e-06
 Reference value :  3.25668e-06
 Reference value :  3.26558e-06
 Reference value :  3.34278e-06
 Reference value :  3.50003e-06
 Reference value :  3.50012e-06
 Reference value :  3.50034e-06
 Reference value :  3.50128e-06
 Reference value :  3.50219e-06
 Reference value :  3.50323e-06
 Reference value :  3.50443e-06
 Reference value :  3.50617e-06
 Reference value :  3.50819e-06
 Reference value :  3.51158e-06
 Reference value :  3.52868e-06
 Reference value :  3.75010e-06
 Reference value :  3.75017e-06
 Reference value :  3.75026e-06
 Reference value :  3.75068e-06
 Reference value :  3.75185e-06
 Reference value :  3.75377e-06
 Reference value :  3.75506e-06
 Reference value :  3.75758e-06
 Reference value :  3.76554e-06
 Reference value :  3.80585e-06
 Reference value :  4.00000e-06
 Reference value :  4.00007e-06
 Reference value :  4.00016e-06
 Reference value :  4.00083e-06
 Reference value :  4.00176e-06
 Reference value :  4.00268e-06
 Reference value :  4.00391e-06
 Reference value :  4.00498e-06
 Reference value :  4.00609e-06
 Reference value :  4.00844e-06
 Reference value :  4.01280e-06
 Reference value :  4.01493e-06
 Reference value :  4.01707e-06
 Reference value :  4.02105e-06
 Reference value :  4.03072e-06
 Reference value :  4.04172e-06
 Reference value :  4.05022e-06
 Reference value :  4.05998e-06
 Reference value :  4.07849e-06
 Reference value :  4.11612e-06
 Reference value :  4.22300e-06
 Reference value :  4.25013e-06
 Reference value :  4.25021e-06
 Reference value :  4.25068e-06
 Reference value :  4.25138e-06
 Reference value :  4.25373e-06
 Reference value :  4.25675e-06
 Reference value :  4.28489e-06
 Reference value :  4.29963e-06
 Reference value :  4.31627e-06
 Reference value :  4.33847e-06
 Reference value :  4.42155e-06
 Reference value :  4.50007e-06
 Reference value :  4.50016e-06
 Reference value :  4.50050e-06
 Reference value :  4.50128e-06
 Reference value :  4.50219e-06
 Reference value :  4.50323e-06
 Reference value :  4.50442e-06
 Reference value :  4.50616e-06
 Reference value :  4.50820e-06
 Reference value :  4.51158e-06
 Reference value :  4.52832e-06
 Reference value :  4.64107e-06
 Reference value :  4.75013e-06
 Reference value :  4.75022e-06
 Reference value :  4.75068e-06
 Reference value :  4.75185e-06
 Reference value :  4.75376e-06
 Reference value :  4.75505e-06
 Reference value :  4.75758e-06
 Reference value :  4.77263e-06
 Reference value :  4.90725e-06
 Reference value :  5.00007e-06
 Reference value :  5.00016e-06
 Reference value :  5.00050e-06
 Reference value :  5.00128e-06
 Reference value :  5.00219e-06
 Reference value :  5.00329e-06
 Reference value :  5.00440e-06
 Reference value :  5.00557e-06
 Reference value :  5.00609e-06
 Reference value :  5.00757e-06
 Reference value :  5.00999e-06
 Reference value :  5.01280e-06
 Reference value :  5.01492e-06
 Reference value :  5.01707e-06
 Reference value :  5.01937e-06
 Reference value :  5.02610e-06
 Reference value :  5.03699e-06
 Reference value :  5.04477e-06
 Reference value :  5.05814e-06
 Reference value :  5.09171e-06
 Reference value :  5.25010e-06
 Reference value :  5.25017e-06
 Reference value :  5.25026e-06
 Reference value :  5.25068e-06
 Reference value :  5.25138e-06
 Reference value :  5.25302e-06
 Reference value :  5.25440e-06
 Reference value :  5.25675e-06
 Reference value :  5.26602e-06
 Reference value :  5.33940e-06
 Reference value :  5.50003e-06
 Reference value :  5.50012e-06
 Reference value :  5.50034e-06
 Reference value :  5.50129e-06
 Reference value :  5.50218e-06
 Reference value :  5.50395e-06
 Reference value :  5.50554e-06
 Reference value :  5.50734e-06
 Reference value :  5.50903e-06
 Reference value :  5.51119e-06
 Reference value :  5.51956e-06
 Reference value :  5.58494e-06
 Reference value :  5.75011e-06
 Reference value :  5.75017e-06
 Reference value :  5.75026e-06
 Reference value :  5.75068e-06
 Reference value :  5.75138e-06
 Reference value :  5.75302e-06
 Reference value :  5.75439e-06
 Reference value :  5.75576e-06
 Reference value :  5.75842e-06
 Reference value :  5.76214e-06
 Reference value :  5.78736e-06
 Reference value :  6.00000e-06
 Reference value :  6.00007e-06
 Reference value :  6.00012e-06
 Reference value :  6.00034e-06
 Reference value :  6.00128e-06
 Reference value :  6.00219e-06
 Reference value :  6.00329e-06
 Reference value :  6.00441e-06
 Reference value :  6.00556e-06
 Reference value :  6.00609e-06
 Reference value :  6.00756e-06
 Reference value :  6.01071e-06
 Reference value :  6.01285e-06
 Reference value :  6.01368e-06
 Reference value :  6.01554e-06
 Reference value :  6.01651e-06
 Reference value :  6.01880e-06
 Reference value :  6.02177e-06
 Reference value :  6.02593e-06
 Reference value :  6.03129e-06
 Reference value :  6.03947e-06
 Reference value :  6.05215e-06
 Reference value :  6.07496e-06
 Reference value :  6.12206e-06
 Reference value :  6.14826e-06
 Reference value :  6.17912e-06
 Reference value :  6.23539e-06
 Reference value :  6.25013e-06
 Reference value :  6.25020e-06
 Reference value :  6.25026e-06
 Reference value :  6.25068e-06
 Reference value :  6.25138e-06
 Reference value :  6.25302e-06
 Reference value :  6.25441e-06
 Reference value :  6.25676e-06
 Reference value :  6.26186e-06
 Reference value :  6.30484e-06
 Reference value :  6.50001e-06
 Reference value :  6.50010e-06
 Reference value :  6.50016e-06
 Reference value :  6.50034e-06
 Reference value :  6.50129e-06
 Reference value :  6.50218e-06
 Reference value :  6.50332e-06
 Reference value :  6.50473e-06
 Reference value :  6.50657e-06
 Reference value :  6.50817e-06
 Reference value :  6.51003e-06
 Reference value :  6.51485e-06
 Reference value :  6.52892e-06
 Reference value :  6.58511e-06
 Reference value :  6.75011e-06
 Reference value :  6.75017e-06
 Reference value :  6.75022e-06
 Reference value :  6.75044e-06
 Reference value :  6.75094e-06
 Reference value :  6.75138e-06
 Reference value :  6.75235e-06
 Reference value :  6.75376e-06
 Reference value :  6.75504e-06
 Reference value :  6.75842e-06
 Reference value :  6.76484e-06
 Reference value :  6.84729e-06
 Reference value :  7.00007e-06
 Reference value :  7.00034e-06
 Reference value :  7.00176e-06
 Reference value :  7.00329e-06
 Reference value :  7.00499e-06
 Reference value :  7.00609e-06
 Reference value :  7.00973e-06
 Reference value :  7.01175e-06
 Reference value :  7.01447e-06
 Reference value :  7.01756e-06
 Reference value :  7.02179e-06
 Reference value :  7.03637e-06
 Reference value :  7.05831e-06
 Reference value :  7.13674e-06
 Reference value :  7.25020e-06
 Reference value :  7.25068e-06
 Reference value :  7.25185e-06
 Reference value :  7.25302e-06
 Reference value :  7.25438e-06
 Reference value :  7.25569e-06
 Reference value :  7.25915e-06
 Reference value :  7.30494e-06
 Reference value :  7.50001e-06
 Reference value :  7.50010e-06
 Reference value :  7.50022e-06
 Reference value :  7.50128e-06
 Reference value :  7.50268e-06
 Reference value :  7.50382e-06
 Reference value :  7.50616e-06
 Reference value :  7.50818e-06
 Reference value :  7.51158e-06
 Reference value :  7.52851e-06
 Reference value :  7.75010e-06
 Reference value :  7.75013e-06
 Reference value :  7.75021e-06
 Reference value :  7.75044e-06
 Reference value :  7.75138e-06
 Reference value :  7.75235e-06
 Reference value :  7.75377e-06
 Reference value :  7.75505e-06
 Reference value :  7.75758e-06
 Reference value :  7.76545e-06
 Reference value :  7.83956e-06
 Reference value :  8.00001e-06
 Reference value :  8.00007e-06
 Reference value :  8.00012e-06
 Reference value :  8.00034e-06
 Reference value :  8.00083e-06
 Reference value :  8.00128e-06
 Reference value :  8.00219e-06
 Reference value :  8.00329e-06
 Reference value :  8.00498e-06
 Reference value :  8.00609e-06
 Reference value :  8.00844e-06
 Reference value :  8.01137e-06
 Reference value :  8.14930e-06
 Reference value :  8.25013e-06
 Reference value :  8.25022e-06
 Reference value :  8.25070e-06
 Reference value :  8.25139e-06
 Reference value :  8.25303e-06
 Reference value :  8.25565e-06
 Reference value :  8.26176e-06
 Reference value :  8.32562e-06
 Reference value :  8.50000e-06
 Reference value :  8.50000e-06
 Reference value :  8.50004e-06
 Reference value :  8.50011e-06
 Reference value :  8.50027e-06
 Reference value :  8.50170e-06
 Reference value :  8.50268e-06
 Reference value :  8.50475e-06
 Reference value :  8.50608e-06
 Reference value :  8.50922e-06
 Reference value :  8.52084e-06
 Reference value :  8.52702e-06
 Reference value :  8.53148e-06
 Reference value :  8.53889e-06
 Reference value :  8.54413e-06
 Reference value :  8.55419e-06
 Reference value :  8.57828e-06
 Reference value :  8.65350e-06
 Reference value :  8.75011e-06
 Reference value :  8.75020e-06
 Reference value :  8.75032e-06
 Reference value :  8.75094e-06
 Reference value :  8.75138e-06
 Reference value :  8.75302e-06
 Reference value :  8.75438e-06
 Reference value :  8.75570e-06
 Reference value :  8.75918e-06
 Reference value :  8.77244e-06
 Reference value :  8.83959e-06
 Reference value :  9.00001e-06
 Reference value :  9.00007e-06
 Reference value :  9.00011e-06
 Reference value :  9.00016e-06
 Reference value :  9.00034e-06
 Reference value :  9.00128e-06
 Reference value :  9.00219e-06
 Reference value :  9.00323e-06
 Reference value :  9.00442e-06
 Reference value :  9.00721e-06
 Reference value :  9.01006e-06
 Reference value :  9.01271e-06
 Reference value :  9.01562e-06
 Reference value :  9.01912e-06
 Reference value :  9.03193e-06
 Reference value :  9.05575e-06
 Reference value :  9.25011e-06
 Reference value :  9.25020e-06
 Reference value :  9.25026e-06
 Reference value :  9.25044e-06
 Reference value :  9.25094e-06
 Reference value :  9.25138e-06
 Reference value :  9.25235e-06
 Reference value :  9.25376e-06
 Reference value :  9.25506e-06
 Reference value :  9.25671e-06
 Reference value :  9.26143e-06
 Reference value :  9.28389e-06
 Reference value :  9.40477e-06
 Reference value :  9.50003e-06
 Reference value :  9.50011e-06
 Reference value :  9.50022e-06
 Reference value :  9.50083e-06
 Reference value :  9.50176e-06
 Reference value :  9.50268e-06
 Reference value :  9.50391e-06
 Reference value :  9.50498e-06
 Reference value :  9.50609e-06
 Reference value :  9.50843e-06
 Reference value :  9.51142e-06
 Reference value :  9.51387e-06
 Reference value :  9.51602e-06
 Reference value :  9.51819e-06
 Reference value :  9.53161e-06
 Reference value :  9.70352e-06
 Reference value :  9.75011e-06
 Reference value :  9.75020e-06
 Reference value :  9.75032e-06
 Reference value :  9.75094e-06
 Reference value :  9.75185e-06
 Reference value :  9.75372e-06
 Reference value :  9.75575e-06
 Reference value :  9.75933e-06
 Reference value :  9.77492e-06
 Reference value :  9.79013e-06
 Reference value :  9.92045e-06
 Reference value :  1.00000e-05
 Reference value :  1.00002e-05
 Reference value :  1.00013e-05
 Reference value :  1.00026e-05
 Reference value :  1.00047e-05
 Reference value :  1.00073e-05
 Reference value :  1.00100e-05
 Reference value :  1.00289e-05
 Reference value :  1.02501e-05
 Reference value :  1.02503e-05
 Reference value :  1.02509e-05
 Reference value :  1.02524e-05
 Reference value :  1.02544e-05
 Reference value :  1.02576e-05
 Reference value :  1.02649e-05
 Reference value :  1.04255e-05
 Reference value :  1.05001e-05
 Reference value :  1.05002e-05
 Reference value :  1.05008e-05
 Reference value :  1.05018e-05
 Reference value :  1.05027e-05
 Reference value :  1.05033e-05
 Reference value :  1.05044e-05
 Reference value :  1.05056e-05
 Reference value :  1.05061e-05
 Reference value :  1.05076e-05
 Reference value :  1.05097e-05
 Reference value :  1.05107e-05
 Reference value :  1.05128e-05
 Reference value :  1.05145e-05
 Reference value :  1.05187e-05
 Reference value :  1.05230e-05
 Reference value :  1.05358e-05
 Reference value :  1.05469e-05
 Reference value :  1.05492e-05
 Reference value :  1.05539e-05
 Reference value :  1.05886e-05
 Reference value :  1.07465e-05
 Reference value :  1.07501e-05
 Reference value :  1.07502e-05
 Reference value :  1.07503e-05
 Reference value :  1.07507e-05
 Reference value :  1.07514e-05
 Reference value :  1.07524e-05
 Reference value :  1.07538e-05
 Reference value :  1.07550e-05
 Reference value :  1.07567e-05
 Reference value :  1.07614e-05
 Reference value :  1.08049e-05
 Reference value :  1.10000e-05
 Reference value :  1.10001e-05
 Reference value :  1.10002e-05
 Reference value :  1.10005e-05
 Reference value :  1.10013e-05
 Reference value :  1.10022e-05
 Reference value :  1.10032e-05
 Reference value :  1.10044e-05
 Reference value :  1.10062e-05
 Reference value :  1.10082e-05
 Reference value :  1.10116e-05
 Reference value :  1.10288e-05
 Reference value :  1.12501e-05
 Reference value :  1.12502e-05
 Reference value :  1.12502e-05
 Reference value :  1.12504e-05
 Reference value :  1.12514e-05
 Reference value :  1.12530e-05
 Reference value :  1.12544e-05
 Reference value :  1.12567e-05
 Reference value :  1.12614e-05
 Reference value :  1.13049e-05
 Reference value :  1.15000e-05
 Reference value :  1.15001e-05
 Reference value :  1.15001e-05
 Reference value :  1.15002e-05
 Reference value :  1.15008e-05
 Reference value :  1.15018e-05
 Reference value :  1.15027e-05
 Reference value :  1.15039e-05
 Reference value :  1.15050e-05
 Reference value :  1.15061e-05
 Reference value :  1.15084e-05
 Reference value :  1.15114e-05
 Reference value :  1.15128e-05
 Reference value :  1.15149e-05
 Reference value :  1.15170e-05
 Reference value :  1.15207e-05
 Reference value :  1.15388e-05
 Reference value :  1.16549e-05
 Reference value :  1.17501e-05
 Reference value :  1.17502e-05
 Reference value :  1.17503e-05
 Reference value :  1.17509e-05
 Reference value :  1.17518e-05
 Reference value :  1.17538e-05
 Reference value :  1.17550e-05
 Reference value :  1.17576e-05
 Reference value :  1.17725e-05
 Reference value :  1.18403e-05
 Reference value :  1.20000e-05
 Reference value :  1.20001e-05
 Reference value :  1.20002e-05
 Reference value :  1.20008e-05
 Reference value :  1.20018e-05
 Reference value :  1.20027e-05
 Reference value :  1.20038e-05
 Reference value :  1.20051e-05
 Reference value :  1.20072e-05
 Reference value :  1.20092e-05
 Reference value :  1.20115e-05
 Reference value :  1.20288e-05
 Reference value :  1.22501e-05
 Reference value :  1.22502e-05
 Reference value :  1.22502e-05
 Reference value :  1.22503e-05
 Reference value :  1.22507e-05
 Reference value :  1.22514e-05
 Reference value :  1.22524e-05
 Reference value :  1.22538e-05
 Reference value :  1.22544e-05
 Reference value :  1.22558e-05
 Reference value :  1.22576e-05
 Reference value :  1.22614e-05
 Reference value :  1.23049e-05
 Reference value :  1.25000e-05
 Reference value :  1.25001e-05
 Reference value :  1.25001e-05
 Reference value :  1.25002e-05
 Reference value :  1.25003e-05
 Reference value :  1.25008e-05
 Reference value :  1.25013e-05
 Reference value :  1.25022e-05
 Reference value :  1.25033e-05
 Reference value :  1.25044e-05
 Reference value :  1.25056e-05
 Reference value :  1.25061e-05
 Reference value :  1.25084e-05
 Reference value :  1.25114e-05
 Reference value :  1.25128e-05
 Reference value :  1.25149e-05
 Reference value :  1.25170e-05
 Reference value :  1.25207e-05
 Reference value :  1.25300e-05
 Reference value :  1.25400e-05
 Reference value :  1.25556e-05
 Reference value :  1.25730e-05
 Reference value :  1.26249e-05
 Reference value :  1.27217e-05
 Reference value :  1.27501e-05
 Reference value :  1.27502e-05
 Reference value :  1.27502e-05
 Reference value :  1.27504e-05
 Reference value :  1.27509e-05
 Reference value :  1.27514e-05
 Reference value :  1.27524e-05
 Reference value :  1.27537e-05
 Reference value :  1.27551e-05
 Reference value :  1.27567e-05
 Reference value :  1.27579e-05
 Reference value :  1.27619e-05
 Reference value :  1.27729e-05
 Reference value :  1.27815e-05
 Reference value :  1.27868e-05
 Reference value :  1.28009e-05
 Reference value :  1.28170e-05
 Reference value :  1.28457e-05
 Reference value :  1.29195e-05
 Reference value :  1.30000e-05
 Reference value :  1.30000e-05
 Reference value :  1.30001e-05
 Reference value :  1.30001e-05
 Reference value :  1.30002e-05
 Reference value :  1.30005e-05
 Reference value :  1.30013e-05
 Reference value :  1.30022e-05
 Reference value :  1.30032e-05
 Reference value :  1.30044e-05
 Reference value :  1.30062e-05
 Reference value :  1.30082e-05
 Reference value :  1.30104e-05
 Reference value :  1.30129e-05
 Reference value :  1.30286e-05
 Reference value :  1.31442e-05
 Reference value :  1.32501e-05
 Reference value :  1.32502e-05
 Reference value :  1.32503e-05
 Reference value :  1.32504e-05
 Reference value :  1.32509e-05
 Reference value :  1.32514e-05
 Reference value :  1.32524e-05
 Reference value :  1.32538e-05
 Reference value :  1.32544e-05
 Reference value :  1.32576e-05
 Reference value :  1.32725e-05
 Reference value :  1.35000e-05
 Reference value :  1.35001e-05
 Reference value :  1.35008e-05
 Reference value :  1.35022e-05
 Reference value :  1.35039e-05
 Reference value :  1.35056e-05
 Reference value :  1.35084e-05
 Reference value :  1.35128e-05
 Reference value :  1.35160e-05
 Reference value :  1.35194e-05
 Reference value :  1.35316e-05
 Reference value :  1.35370e-05
 Reference value :  1.35448e-05
 Reference value :  1.35533e-05
 Reference value :  1.35635e-05
 Reference value :  1.35909e-05
 Reference value :  1.37224e-05
 Reference value :  1.37501e-05
 Reference value :  1.37502e-05
 Reference value :  1.37503e-05
 Reference value :  1.37507e-05
 Reference value :  1.37514e-05
 Reference value :  1.37524e-05
 Reference value :  1.37537e-05
 Reference value :  1.37551e-05
 Reference value :  1.37567e-05
 Reference value :  1.37618e-05
 Reference value :  1.37846e-05
 Reference value :  1.39005e-05
 Reference value :  1.40000e-05
 Reference value :  1.40001e-05
 Reference value :  1.40002e-05
 Reference value :  1.40008e-05
 Reference value :  1.40018e-05
 Reference value :  1.40026e-05
 Reference value :  1.40039e-05
 Reference value :  1.40047e-05
 Reference value :  1.40066e-05
 Reference value :  1.40073e-05
 Reference value :  1.40090e-05
 Reference value :  1.40124e-05
 Reference value :  1.40476e-05
 Reference value :  1.42501e-05
 Reference value :  1.42502e-05
 Reference value :  1.42503e-05
 Reference value :  1.42507e-05
 Reference value :  1.42514e-05
 Reference value :  1.42524e-05
 Reference value :  1.42538e-05
 Reference value :  1.42550e-05
 Reference value :  1.42567e-05
 Reference value :  1.42584e-05
 Reference value :  1.42621e-05
 Reference value :  1.42874e-05
 Reference value :  1.44246e-05
 Reference value :  1.45001e-05
 Reference value :  1.45001e-05
 Reference value :  1.45003e-05
 Reference value :  1.45013e-05
 Reference value :  1.45022e-05
 Reference value :  1.45033e-05
 Reference value :  1.45044e-05
 Reference value :  1.45056e-05
 Reference value :  1.45061e-05
 Reference value :  1.45076e-05
 Reference value :  1.45097e-05
 Reference value :  1.45107e-05
 Reference value :  1.45129e-05
 Reference value :  1.45137e-05
 Reference value :  1.45155e-05
 Reference value :  1.45176e-05
 Reference value :  1.45220e-05
 Reference value :  1.45263e-05
 Reference value :  1.45316e-05
 Reference value :  1.45381e-05
 Reference value :  1.45449e-05
 Reference value :  1.45681e-05
 Reference value :  1.47215e-05
 Reference value :  1.47501e-05
 Reference value :  1.47502e-05
 Reference value :  1.47502e-05
 Reference value :  1.47503e-05
 Reference value :  1.47509e-05
 Reference value :  1.47518e-05
 Reference value :  1.47536e-05
 Reference value :  1.47550e-05
 Reference value :  1.47566e-05
 Reference value :  1.47591e-05
 Reference value :  1.47719e-05
 Reference value :  1.48669e-05
 Reference value :  1.49659e-05
 Reference value :  1.50000e-05
 Reference value :  1.50001e-05
 Reference value :  1.50003e-05
 Reference value :  1.50013e-05
 Reference value :  1.50022e-05
 Reference value :  1.50033e-05
 Reference value :  1.50047e-05
 Reference value :  1.50066e-05
 Reference value :  1.50073e-05
 Reference value :  1.50090e-05
 Reference value :  1.50124e-05
 Reference value :  1.50289e-05
 Reference value :  1.51596e-05
 Reference value :  1.52501e-05
 Reference value :  1.52502e-05
 Reference value :  1.52504e-05
 Reference value :  1.52514e-05
 Reference value :  1.52530e-05
 Reference value :  1.52544e-05
 Reference value :  1.52567e-05
 Reference value :  1.52584e-05
 Reference value :  1.52648e-05
 Reference value :  1.53472e-05
 Reference value :  1.55013e-05
 Reference value :  1.55052e-05
 Reference value :  1.55075e-05
 Reference value :  1.55096e-05
 Reference value :  1.55104e-05
 Reference value :  1.55124e-05
 Reference value :  1.55142e-05
 Reference value :  1.55149e-05
 Reference value :  1.55170e-05
 Reference value :  1.55191e-05
 Reference value :  1.55202e-05
 Reference value :  1.55211e-05
 Reference value :  1.55238e-05
 Reference value :  1.55284e-05
 Reference value :  1.55382e-05
 Reference value :  1.55562e-05
 Reference value :  1.55837e-05
 Reference value :  1.57501e-05
 Reference value :  1.57501e-05
 Reference value :  1.57502e-05
 Reference value :  1.57502e-05
 Reference value :  1.57503e-05
 Reference value :  1.57507e-05
 Reference value :  1.57514e-05
 Reference value :  1.57519e-05
 Reference value :  1.57530e-05
 Reference value :  1.57544e-05
 Reference value :  1.57557e-05
 Reference value :  1.57591e-05
 Reference value :  1.57723e-05
 Reference value :  1.58387e-05
 Reference value :  1.60000e-05
 Reference value :  1.60001e-05
 Reference value :  1.60002e-05
 Reference value :  1.60003e-05
 Reference value :  1.60013e-05
 Reference value :  1.60022e-05
 Reference value :  1.60032e-05
 Reference value :  1.60044e-05
 Reference value :  1.60062e-05
 Reference value :  1.60082e-05
 Reference value :  1.60104e-05
 Reference value :  1.60129e-05
 Reference value :  1.60284e-05
 Reference value :  1.62501e-05
 Reference value :  1.62502e-05
 Reference value :  1.62502e-05
 Reference value :  1.62507e-05
 Reference value :  1.62514e-05
 Reference value :  1.62530e-05
 Reference value :  1.62544e-05
 Reference value :  1.62567e-05
 Reference value :  1.62655e-05
 Reference value :  1.63396e-05
 Reference value :  1.65000e-05
 Reference value :  1.65001e-05
 Reference value :  1.65002e-05
 Reference value :  1.65005e-05
 Reference value :  1.65013e-05
 Reference value :  1.65022e-05
 Reference value :  1.65033e-05
 Reference value :  1.65044e-05
 Reference value :  1.65056e-05
 Reference value :  1.65067e-05
 Reference value :  1.65084e-05
 Reference value :  1.65103e-05
 Reference value :  1.65267e-05
 Reference value :  1.67501e-05
 Reference value :  1.67502e-05
 Reference value :  1.67503e-05
 Reference value :  1.67510e-05
 Reference value :  1.67519e-05
 Reference value :  1.67539e-05
 Reference value :  1.67556e-05
 Reference value :  1.67592e-05
 Reference value :  1.67806e-05
 Reference value :  1.68840e-05
 Reference value :  1.70000e-05
 Reference value :  1.70000e-05
 Reference value :  1.70000e-05
 Reference value :  1.70000e-05
 Reference value :  1.70001e-05
 Reference value :  1.70001e-05
 Reference value :  1.70002e-05
 Reference value :  1.70008e-05
 Reference value :  1.70017e-05
 Reference value :  1.70027e-05
 Reference value :  1.70047e-05
 Reference value :  1.70054e-05
 Reference value :  1.70068e-05
 Reference value :  1.70142e-05
 Reference value :  1.70270e-05
 Reference value :  1.70315e-05
 Reference value :  1.70389e-05
 Reference value :  1.70466e-05
 Reference value :  1.70678e-05
 Reference value :  1.72085e-05
 Reference value :  1.72502e-05
 Reference value :  1.72504e-05
 Reference value :  1.72514e-05
 Reference value :  1.72538e-05
 Reference value :  1.72557e-05
 Reference value :  1.72654e-05
 Reference value :  1.75000e-05
 Reference value :  1.75001e-05
 Reference value :  1.75005e-05
 Reference value :  1.75022e-05
 Reference value :  1.75038e-05
 Reference value :  1.75062e-05
 Reference value :  1.75101e-05
 Reference value :  1.75127e-05
 Reference value :  1.75156e-05
 Reference value :  1.75191e-05
 Reference value :  1.75399e-05
 Reference value :  1.77501e-05
 Reference value :  1.77502e-05
 Reference value :  1.77507e-05
 Reference value :  1.77514e-05
 Reference value :  1.77530e-05
 Reference value :  1.77544e-05
 Reference value :  1.77576e-05
 Reference value :  1.77839e-05
 Reference value :  1.80018e-05
 Reference value :  1.80072e-05
 Reference value :  1.80127e-05
 Reference value :  1.80165e-05
 Reference value :  1.80204e-05
 Reference value :  1.80359e-05
 Reference value :  1.81866e-05
 Reference value :  1.82501e-05
 Reference value :  1.82502e-05
 Reference value :  1.82502e-05
 Reference value :  1.82507e-05
 Reference value :  1.82519e-05
 Reference value :  1.82530e-05
 Reference value :  1.82543e-05
 Reference value :  1.82574e-05
 Reference value :  1.82776e-05
 Reference value :  1.82989e-05
 Reference value :  1.84285e-05
 Reference value :  1.85000e-05
 Reference value :  1.85001e-05
 Reference value :  1.85005e-05
 Reference value :  1.85018e-05
 Reference value :  1.85033e-05
 Reference value :  1.85047e-05
 Reference value :  1.85073e-05
 Reference value :  1.85090e-05
 Reference value :  1.85124e-05
 Reference value :  1.85476e-05
 Reference value :  1.87501e-05
 Reference value :  1.87502e-05
 Reference value :  1.87504e-05
 Reference value :  1.87514e-05
 Reference value :  1.87530e-05
 Reference value :  1.87544e-05
 Reference value :  1.87567e-05
 Reference value :  1.87593e-05
 Reference value :  1.87683e-05
 Reference value :  1.88484e-05
 Reference value :  1.90000e-05
 Reference value :  1.90001e-05
 Reference value :  1.90003e-05
 Reference value :  1.90013e-05
 Reference value :  1.90027e-05
 Reference value :  1.90039e-05
 Reference value :  1.90044e-05
 Reference value :  1.90056e-05
 Reference value :  1.90067e-05
 Reference value :  1.90097e-05
 Reference value :  1.90107e-05
 Reference value :  1.90128e-05
 Reference value :  1.90145e-05
 Reference value :  1.90165e-05
 Reference value :  1.90187e-05
 Reference value :  1.90213e-05
 Reference value :  1.90306e-05
 Reference value :  1.90353e-05
 Reference value :  1.90454e-05
 Reference value :  1.90479e-05
 Reference value :  1.90528e-05
 Reference value :  1.90640e-05
 Reference value :  1.90815e-05
 Reference value :  1.91517e-05
 Reference value :  1.92501e-05
 Reference value :  1.92502e-05
 Reference value :  1.92503e-05
 Reference value :  1.92507e-05
 Reference value :  1.92514e-05
 Reference value :  1.92524e-05
 Reference value :  1.92538e-05
 Reference value :  1.92544e-05
 Reference value :  1.92557e-05
 Reference value :  1.92576e-05
 Reference value :  1.92614e-05
 Reference value :  1.92839e-05
 Reference value :  1.94069e-05
 Reference value :  1.95018e-05
 Reference value :  1.95053e-05
 Reference value :  1.95071e-05
 Reference value :  1.95103e-05
 Reference value :  1.95133e-05
 Reference value :  1.95215e-05
 Reference value :  1.95549e-05
 Reference value :  1.97086e-05
 Reference value :  1.97502e-05
 Reference value :  1.97503e-05
 Reference value :  1.97514e-05
 Reference value :  1.97537e-05
 Reference value :  1.97548e-05
 Reference value :  1.97585e-05
 Reference value :  1.97969e-05
 Reference value :  2.00000e-05
 Reference value :  2.00001e-05
 Reference value :  2.00002e-05
 Reference value :  2.00005e-05
 Reference value :  2.00013e-05
 Reference value :  2.00022e-05
 Reference value :  2.00033e-05
 Reference value :  2.00044e-05
 Reference value :  2.00056e-05
 Reference value :  2.00067e-05
 Reference value :  2.00084e-05
 Reference value :  2.00114e-05
 Reference value :  2.00128e-05
 Reference value :  2.00149e-05
 Reference value :  2.00170e-05
 Reference value :  2.00193e-05
 Reference value :  2.00253e-05
 Reference value :  2.00543e-05
 Reference value :  2.01559e-05
 Reference value :  2.02501e-05
 Reference value :  2.02502e-05
 Reference value :  2.02504e-05
 Reference value :  2.02514e-05
 Reference value :  2.02530e-05
 Reference value :  2.02544e-05
 Reference value :  2.02567e-05
 Reference value :  2.02615e-05
 Reference value :  2.03050e-05
 Reference value :  2.05018e-05
 Reference value :  2.05071e-05
 Reference value :  2.05103e-05
 Reference value :  2.05134e-05
 Reference value :  2.05216e-05
 Reference value :  2.05556e-05
 Reference value :  2.07501e-05
 Reference value :  2.07502e-05
 Reference value :  2.07502e-05
 Reference value :  2.07503e-05
 Reference value :  2.07507e-05
 Reference value :  2.07514e-05
 Reference value :  2.07524e-05
 Reference value :  2.07542e-05
 Reference value :  2.07563e-05
 Reference value :  2.07693e-05
 Reference value :  2.09895e-05
 Reference value :  2.10001e-05
 Reference value :  2.10002e-05
 Reference value :  2.10008e-05
 Reference value :  2.10022e-05
 Reference value :  2.10033e-05
 Reference value :  2.10050e-05
 Reference value :  2.10061e-05
 Reference value :  2.10100e-05
 Reference value :  2.10128e-05
 Reference value :  2.10160e-05
 Reference value :  2.10181e-05
 Reference value :  2.10225e-05
 Reference value :  2.10352e-05
 Reference value :  2.10406e-05
 Reference value :  2.10506e-05
 Reference value :  2.10676e-05
 Reference value :  2.10995e-05
 Reference value :  2.11913e-05
 Reference value :  2.12241e-05
 Reference value :  2.12501e-05
 Reference value :  2.12502e-05
 Reference value :  2.12503e-05
 Reference value :  2.12514e-05
 Reference value :  2.12530e-05
 Reference value :  2.12544e-05
 Reference value :  2.12567e-05
 Reference value :  2.12653e-05
 Reference value :  2.12932e-05
 Reference value :  2.15000e-05
 Reference value :  2.15001e-05
 Reference value :  2.15002e-05
 Reference value :  2.15008e-05
 Reference value :  2.15013e-05
 Reference value :  2.15022e-05
 Reference value :  2.15032e-05
 Reference value :  2.15044e-05
 Reference value :  2.15062e-05
 Reference value :  2.15082e-05
 Reference value :  2.15103e-05
 Reference value :  2.15154e-05
 Reference value :  2.15792e-05
 Reference value :  2.17501e-05
 Reference value :  2.17502e-05
 Reference value :  2.17502e-05
 Reference value :  2.17503e-05
 Reference value :  2.17507e-05
 Reference value :  2.17514e-05
 Reference value :  2.17524e-05
 Reference value :  2.17538e-05
 Reference value :  2.17551e-05
 Reference value :  2.17592e-05
 Reference value :  2.18049e-05
 Reference value :  2.20015e-05
 Reference value :  2.20045e-05
 Reference value :  2.20061e-05
 Reference value :  2.20092e-05
 Reference value :  2.20120e-05
 Reference value :  2.20155e-05
 Reference value :  2.20193e-05
 Reference value :  2.20298e-05
 Reference value :  2.20423e-05
 Reference value :  2.20563e-05
 Reference value :  2.20836e-05
 Reference value :  2.22501e-05
 Reference value :  2.22502e-05
 Reference value :  2.22504e-05
 Reference value :  2.22514e-05
 Reference value :  2.22537e-05
 Reference value :  2.22567e-05
 Reference value :  2.22845e-05
 Reference value :  2.25000e-05
 Reference value :  2.25001e-05
 Reference value :  2.25005e-05
 Reference value :  2.25013e-05
 Reference value :  2.25033e-05
 Reference value :  2.25055e-05
 Reference value :  2.25082e-05
 Reference value :  2.25124e-05
 Reference value :  2.26568e-05
 Reference value :  2.27502e-05
 Reference value :  2.27509e-05
 Reference value :  2.27530e-05
 Reference value :  2.27558e-05
 Reference value :  2.27593e-05
 Reference value :  2.28072e-05
 Reference value :  2.30013e-05
 Reference value :  2.30051e-05
 Reference value :  2.30084e-05
 Reference value :  2.30114e-05
 Reference value :  2.30133e-05
 Reference value :  2.30157e-05
 Reference value :  2.30197e-05
 Reference value :  2.30251e-05
 Reference value :  2.30303e-05
 Reference value :  2.30368e-05
 Reference value :  2.30719e-05
 Reference value :  2.32501e-05
 Reference value :  2.32503e-05
 Reference value :  2.32514e-05
 Reference value :  2.32538e-05
 Reference value :  2.32557e-05
 Reference value :  2.32653e-05
 Reference value :  2.34608e-05
 Reference value :  2.35000e-05
 Reference value :  2.35002e-05
 Reference value :  2.35005e-05
 Reference value :  2.35018e-05
 Reference value :  2.35033e-05
 Reference value :  2.35047e-05
 Reference value :  2.35074e-05
 Reference value :  2.35090e-05
 Reference value :  2.35124e-05
 Reference value :  2.35466e-05
 Reference value :  2.36370e-05
 Reference value :  2.37501e-05
 Reference value :  2.37502e-05
 Reference value :  2.37503e-05
 Reference value :  2.37507e-05
 Reference value :  2.37518e-05
 Reference value :  2.37544e-05
 Reference value :  2.37567e-05
 Reference value :  2.37584e-05
 Reference value :  2.37621e-05
 Reference value :  2.37879e-05
 Reference value :  2.40000e-05
 Reference value :  2.40001e-05
 Reference value :  2.40001e-05
 Reference value :  2.40003e-05
 Reference value :  2.40013e-05
 Reference value :  2.40022e-05
 Reference value :  2.40033e-05
 Reference value :  2.40044e-05
 Reference value :  2.40056e-05
 Reference value :  2.40061e-05
 Reference value :  2.40075e-05
 Reference value :  2.40097e-05
 Reference value :  2.40107e-05
 Reference value :  2.40128e-05
 Reference value :  2.40136e-05
 Reference value :  2.40155e-05
 Reference value :  2.40175e-05
 Reference value :  2.40192e-05
 Reference value :  2.40215e-05
 Reference value :  2.40285e-05
 Reference value :  2.40549e-05
 Reference value :  2.41863e-05
 Reference value :  2.42501e-05
 Reference value :  2.42502e-05
 Reference value :  2.42507e-05
 Reference value :  2.42518e-05
 Reference value :  2.42544e-05
 Reference value :  2.42576e-05
 Reference value :  2.43049e-05
 Reference value :  2.45001e-05
 Reference value :  2.45002e-05
 Reference value :  2.45005e-05
 Reference value :  2.45013e-05
 Reference value :  2.45022e-05
 Reference value :  2.45032e-05
 Reference value :  2.45044e-05
 Reference value :  2.45062e-05
 Reference value :  2.45082e-05
 Reference value :  2.45116e-05
 Reference value :  2.45288e-05
 Reference value :  2.46453e-05
 Reference value :  2.47501e-05
 Reference value :  2.47502e-05
 Reference value :  2.47503e-05
 Reference value :  2.47509e-05
 Reference value :  2.47518e-05
 Reference value :  2.47538e-05
 Reference value :  2.47550e-05
 Reference value :  2.47567e-05
 Reference value :  2.47614e-05
 Reference value :  2.48048e-05
 Reference value :  2.50000e-05
 Reference value :  2.50001e-05
 Reference value :  2.50002e-05
 Reference value :  2.50005e-05
 Reference value :  2.50013e-05
 Reference value :  2.50022e-05
 Reference value :  2.50039e-05
 Reference value :  2.50056e-05
 Reference value :  2.50076e-05
 Reference value :  2.50103e-05
 Reference value :  2.50792e-05
 Reference value :  2.52502e-05
 Reference value :  2.52503e-05
 Reference value :  2.52510e-05
 Reference value :  2.52519e-05
 Reference value :  2.52539e-05
 Reference value :  2.52566e-05
 Reference value :  2.52592e-05
 Reference value :  2.52712e-05
 Reference value :  2.54968e-05
 Reference value :  2.55000e-05
 Reference value :  2.55000e-05
 Reference value :  2.55000e-05
 Reference value :  2.55001e-05
 Reference value :  2.55002e-05
 Reference value :  2.55012e-05
 Reference value :  2.55022e-05
 Reference value :  2.55048e-05
 Reference value :  2.55061e-05
 Reference value :  2.55109e-05
 Reference value :  2.55270e-05
 Reference value :  2.55315e-05
 Reference value :  2.55388e-05
 Reference value :  2.55441e-05
 Reference value :  2.55541e-05
 Reference value :  2.55787e-05
 Reference value :  2.56241e-05
 Reference value :  2.57501e-05
 Reference value :  2.57502e-05
 Reference value :  2.57503e-05
 Reference value :  2.57509e-05
 Reference value :  2.57518e-05
 Reference value :  2.57530e-05
 Reference value :  2.57544e-05
 Reference value :  2.57567e-05
 Reference value :  2.57654e-05
 Reference value :  2.58395e-05
 Reference value :  2.60000e-05
 Reference value :  2.60001e-05
 Reference value :  2.60002e-05
 Reference value :  2.60013e-05
 Reference value :  2.60022e-05
 Reference value :  2.60032e-05
 Reference value :  2.60044e-05
 Reference value :  2.60062e-05
 Reference value :  2.60089e-05
 Reference value :  2.60101e-05
 Reference value :  2.60127e-05
 Reference value :  2.60156e-05
 Reference value :  2.60212e-05
 Reference value :  2.61510e-05
 Reference value :  2.62502e-05
 Reference value :  2.62504e-05
 Reference value :  2.62514e-05
 Reference value :  2.62538e-05
 Reference value :  2.62558e-05
 Reference value :  2.62614e-05
 Reference value :  2.64047e-05
 Reference value :  2.65018e-05
 Reference value :  2.65072e-05
 Reference value :  2.65127e-05
 Reference value :  2.65141e-05
 Reference value :  2.65165e-05
 Reference value :  2.65190e-05
 Reference value :  2.65247e-05
 Reference value :  2.65469e-05
 Reference value :  2.66866e-05
 Reference value :  2.67501e-05
 Reference value :  2.67502e-05
 Reference value :  2.67503e-05
 Reference value :  2.67514e-05
 Reference value :  2.67536e-05
 Reference value :  2.67564e-05
 Reference value :  2.67749e-05
 Reference value :  2.67959e-05
 Reference value :  2.70000e-05
 Reference value :  2.70001e-05
 Reference value :  2.70002e-05
 Reference value :  2.70013e-05
 Reference value :  2.70026e-05
 Reference value :  2.70047e-05
 Reference value :  2.70073e-05
 Reference value :  2.70100e-05
 Reference value :  2.70851e-05
 Reference value :  2.72502e-05
 Reference value :  2.72507e-05
 Reference value :  2.72518e-05
 Reference value :  2.72544e-05
 Reference value :  2.72576e-05
 Reference value :  2.72621e-05
 Reference value :  2.74252e-05
 Reference value :  2.75001e-05
 Reference value :  2.75005e-05
 Reference value :  2.75013e-05
 Reference value :  2.75022e-05
 Reference value :  2.75033e-05
 Reference value :  2.75044e-05
 Reference value :  2.75056e-05
 Reference value :  2.75061e-05
 Reference value :  2.75084e-05
 Reference value :  2.75107e-05
 Reference value :  2.75128e-05
 Reference value :  2.75145e-05
 Reference value :  2.75165e-05
 Reference value :  2.75187e-05
 Reference value :  2.75213e-05
 Reference value :  2.75306e-05
 Reference value :  2.75352e-05
 Reference value :  2.75448e-05
 Reference value :  2.75474e-05
 Reference value :  2.75523e-05
 Reference value :  2.75697e-05
 Reference value :  2.76513e-05
 Reference value :  2.77501e-05
 Reference value :  2.77502e-05
 Reference value :  2.77503e-05
 Reference value :  2.77509e-05
 Reference value :  2.77518e-05
 Reference value :  2.77538e-05
 Reference value :  2.77544e-05
 Reference value :  2.77567e-05
 Reference value :  2.77614e-05
 Reference value :  2.77839e-05
 Reference value :  2.80000e-05
 Reference value :  2.80018e-05
 Reference value :  2.80053e-05
 Reference value :  2.80071e-05
 Reference value :  2.80103e-05
 Reference value :  2.80150e-05
 Reference value :  2.80381e-05
 Reference value :  2.82501e-05
 Reference value :  2.82502e-05
 Reference value :  2.82503e-05
 Reference value :  2.82509e-05
 Reference value :  2.82519e-05
 Reference value :  2.82537e-05
 Reference value :  2.82542e-05
 Reference value :  2.82555e-05
 Reference value :  2.82585e-05
 Reference value :  2.82695e-05
 Reference value :  2.83300e-05
 Reference value :  2.85000e-05
 Reference value :  2.85000e-05
 Reference value :  2.85001e-05
 Reference value :  2.85002e-05
 Reference value :  2.85008e-05
 Reference value :  2.85018e-05
 Reference value :  2.85027e-05
 Reference value :  2.85033e-05
 Reference value :  2.85044e-05
 Reference value :  2.85056e-05
 Reference value :  2.85076e-05
 Reference value :  2.85114e-05
 Reference value :  2.85128e-05
 Reference value :  2.85149e-05
 Reference value :  2.85170e-05
 Reference value :  2.85193e-05
 Reference value :  2.85253e-05
 Reference value :  2.85389e-05
 Reference value :  2.85799e-05
 Reference value :  2.86567e-05
 Reference value :  2.87093e-05
 Reference value :  2.87501e-05
 Reference value :  2.87502e-05
 Reference value :  2.87502e-05
 Reference value :  2.87504e-05
 Reference value :  2.87509e-05
 Reference value :  2.87514e-05
 Reference value :  2.87524e-05
 Reference value :  2.87538e-05
 Reference value :  2.87544e-05
 Reference value :  2.87557e-05
 Reference value :  2.87576e-05
 Reference value :  2.87655e-05
 Reference value :  2.88050e-05
 Reference value :  2.90000e-05
 Reference value :  2.90018e-05
 Reference value :  2.90053e-05
 Reference value :  2.90071e-05
 Reference value :  2.90103e-05
 Reference value :  2.90134e-05
 Reference value :  2.90216e-05
 Reference value :  2.90556e-05
 Reference value :  2.92142e-05
 Reference value :  2.92501e-05
 Reference value :  2.92502e-05
 Reference value :  2.92503e-05
 Reference value :  2.92507e-05
 Reference value :  2.92514e-05
 Reference value :  2.92524e-05
 Reference value :  2.92537e-05
 Reference value :  2.92542e-05
 Reference value :  2.92555e-05
 Reference value :  2.92573e-05
 Reference value :  2.92636e-05
 Reference value :  2.92964e-05
 Reference value :  2.93856e-05
 Reference value :  2.95000e-05
 Reference value :  2.95001e-05
 Reference value :  2.95001e-05
 Reference value :  2.95002e-05
 Reference value :  2.95005e-05
 Reference value :  2.95013e-05
 Reference value :  2.95022e-05
 Reference value :  2.95033e-05
 Reference value :  2.95044e-05
 Reference value :  2.95056e-05
 Reference value :  2.95067e-05
 Reference value :  2.95100e-05
 Reference value :  2.95127e-05
 Reference value :  2.95138e-05
 Reference value :  2.95170e-05
 Reference value :  2.95207e-05
 Reference value :  2.95353e-05
 Reference value :  2.95458e-05
 Reference value :  2.95611e-05
 Reference value :  2.95972e-05
 Reference value :  2.97162e-05
 Reference value :  2.97436e-05
 Reference value :  2.97501e-05
 Reference value :  2.97502e-05
 Reference value :  2.97503e-05
 Reference value :  2.97509e-05
 Reference value :  2.97518e-05
 Reference value :  2.97538e-05
 Reference value :  2.97551e-05
 Reference value :  2.97577e-05
 Reference value :  2.97726e-05
 Reference value :  2.98401e-05
 Reference value :  3.00000e-05
 Reference value :  3.00001e-05
 Reference value :  3.00002e-05
 Reference value :  3.00008e-05
 Reference value :  3.00018e-05
 Reference value :  3.00027e-05
 Reference value :  3.00038e-05
 Reference value :  3.00051e-05
 Reference value :  3.00072e-05
 Reference value :  3.00092e-05
 Reference value :  3.00115e-05
 Reference value :  3.00205e-05
 Reference value :  3.00794e-05
 Reference value :  3.02501e-05
 Reference value :  3.02502e-05
 Reference value :  3.02503e-05
 Reference value :  3.02507e-05
 Reference value :  3.02514e-05
 Reference value :  3.02524e-05
 Reference value :  3.02538e-05
 Reference value :  3.02551e-05
 Reference value :  3.02576e-05
 Reference value :  3.02655e-05
 Reference value :  3.03397e-05
 Reference value :  3.05015e-05
 Reference value :  3.05045e-05
 Reference value :  3.05061e-05
 Reference value :  3.05092e-05
 Reference value :  3.05106e-05
 Reference value :  3.05120e-05
 Reference value :  3.05145e-05
 Reference value :  3.05168e-05
 Reference value :  3.05192e-05
 Reference value :  3.05250e-05
 Reference value :  3.05346e-05
 Reference value :  3.05409e-05
 Reference value :  3.05494e-05
 Reference value :  3.05589e-05
 Reference value :  3.05906e-05
 Reference value :  3.07473e-05
 Reference value :  3.07502e-05
 Reference value :  3.07503e-05
 Reference value :  3.07507e-05
 Reference value :  3.07514e-05
 Reference value :  3.07530e-05
 Reference value :  3.07551e-05
 Reference value :  3.07579e-05
 Reference value :  3.07660e-05
 Reference value :  3.08045e-05
 Reference value :  3.10000e-05
 Reference value :  3.10000e-05
 Reference value :  3.10001e-05
 Reference value :  3.10002e-05
 Reference value :  3.10008e-05
 Reference value :  3.10013e-05
 Reference value :  3.10022e-05
 Reference value :  3.10033e-05
 Reference value :  3.10039e-05
 Reference value :  3.10047e-05
 Reference value :  3.10066e-05
 Reference value :  3.10074e-05
 Reference value :  3.10090e-05
 Reference value :  3.10124e-05
 Reference value :  3.10471e-05
 Reference value :  3.12501e-05
 Reference value :  3.12502e-05
 Reference value :  3.12503e-05
 Reference value :  3.12507e-05
 Reference value :  3.12514e-05
 Reference value :  3.12530e-05
 Reference value :  3.12544e-05
 Reference value :  3.12558e-05
 Reference value :  3.12576e-05
 Reference value :  3.12593e-05
 Reference value :  3.12648e-05
 Reference value :  3.12872e-05
 Reference value :  3.15000e-05
 Reference value :  3.15001e-05
 Reference value :  3.15001e-05
 Reference value :  3.15003e-05
 Reference value :  3.15013e-05
 Reference value :  3.15027e-05
 Reference value :  3.15044e-05
 Reference value :  3.15061e-05
 Reference value :  3.15076e-05
 Reference value :  3.15097e-05
 Reference value :  3.15107e-05
 Reference value :  3.15117e-05
 Reference value :  3.15129e-05
 Reference value :  3.15145e-05
 Reference value :  3.15165e-05
 Reference value :  3.15188e-05
 Reference value :  3.15220e-05
 Reference value :  3.15260e-05
 Reference value :  3.15306e-05
 Reference value :  3.15392e-05
 Reference value :  3.15766e-05
 Reference value :  3.17501e-05
 Reference value :  3.17502e-05
 Reference value :  3.17502e-05
 Reference value :  3.17504e-05
 Reference value :  3.17509e-05
 Reference value :  3.17514e-05
 Reference value :  3.17524e-05
 Reference value :  3.17538e-05
 Reference value :  3.17550e-05
 Reference value :  3.17576e-05
 Reference value :  3.17839e-05
 Reference value :  3.20000e-05
 Reference value :  3.20001e-05
 Reference value :  3.20001e-05
 Reference value :  3.20003e-05
 Reference value :  3.20013e-05
 Reference value :  3.20022e-05
 Reference value :  3.20032e-05
 Reference value :  3.20044e-05
 Reference value :  3.20062e-05
 Reference value :  3.20082e-05
 Reference value :  3.20104e-05
 Reference value :  3.20129e-05
 Reference value :  3.20285e-05
 Reference value :  3.21427e-05
 Reference value :  3.22501e-05
 Reference value :  3.22502e-05
 Reference value :  3.22507e-05
 Reference value :  3.22518e-05
 Reference value :  3.22538e-05
 Reference value :  3.22558e-05
 Reference value :  3.22655e-05
 Reference value :  3.25000e-05
 Reference value :  3.25001e-05
 Reference value :  3.25002e-05
 Reference value :  3.25013e-05
 Reference value :  3.25027e-05
 Reference value :  3.25044e-05
 Reference value :  3.25056e-05
 Reference value :  3.25067e-05
 Reference value :  3.25100e-05
 Reference value :  3.25128e-05
 Reference value :  3.25149e-05
 Reference value :  3.25170e-05
 Reference value :  3.25207e-05
 Reference value :  3.25253e-05
 Reference value :  3.25285e-05
 Reference value :  3.25352e-05
 Reference value :  3.25427e-05
 Reference value :  3.25535e-05
 Reference value :  3.25648e-05
 Reference value :  3.25924e-05
 Reference value :  3.27225e-05
 Reference value :  3.27501e-05
 Reference value :  3.27502e-05
 Reference value :  3.27504e-05
 Reference value :  3.27514e-05
 Reference value :  3.27530e-05
 Reference value :  3.27544e-05
 Reference value :  3.27567e-05
 Reference value :  3.27619e-05
 Reference value :  3.28045e-05
 Reference value :  3.30000e-05
 Reference value :  3.30001e-05
 Reference value :  3.30001e-05
 Reference value :  3.30003e-05
 Reference value :  3.30008e-05
 Reference value :  3.30013e-05
 Reference value :  3.30022e-05
 Reference value :  3.30033e-05
 Reference value :  3.30039e-05
 Reference value :  3.30047e-05
 Reference value :  3.30066e-05
 Reference value :  3.30074e-05
 Reference value :  3.30090e-05
 Reference value :  3.30112e-05
 Reference value :  3.30148e-05
 Reference value :  3.30829e-05
 Reference value :  3.32501e-05
 Reference value :  3.32502e-05
 Reference value :  3.32504e-05
 Reference value :  3.32514e-05
 Reference value :  3.32530e-05
 Reference value :  3.32544e-05
 Reference value :  3.32558e-05
 Reference value :  3.32576e-05
 Reference value :  3.32584e-05
 Reference value :  3.32621e-05
 Reference value :  3.32751e-05
 Reference value :  3.33471e-05
 Reference value :  3.35013e-05
 Reference value :  3.35051e-05
 Reference value :  3.35074e-05
 Reference value :  3.35094e-05
 Reference value :  3.35102e-05
 Reference value :  3.35122e-05
 Reference value :  3.35155e-05
 Reference value :  3.35209e-05
 Reference value :  3.35302e-05
 Reference value :  3.35583e-05
 Reference value :  3.35713e-05
 Reference value :  3.35805e-05
 Reference value :  3.36018e-05
 Reference value :  3.36372e-05
 Reference value :  3.37501e-05
 Reference value :  3.37502e-05
 Reference value :  3.37503e-05
 Reference value :  3.37507e-05
 Reference value :  3.37519e-05
 Reference value :  3.37538e-05
 Reference value :  3.37577e-05
 Reference value :  3.37643e-05
 Reference value :  3.38199e-05
 Reference value :  3.40000e-05
 Reference value :  3.40000e-05
 Reference value :  3.40000e-05
 Reference value :  3.40000e-05
 Reference value :  3.40001e-05
 Reference value :  3.40003e-05
 Reference value :  3.40012e-05
 Reference value :  3.40022e-05
 Reference value :  3.40048e-05
 Reference value :  3.40061e-05
 Reference value :  3.40092e-05
 Reference value :  3.40208e-05
 Reference value :  3.40270e-05
 Reference value :  3.40315e-05
 Reference value :  3.40389e-05
 Reference value :  3.40447e-05
 Reference value :  3.40514e-05
 Reference value :  3.40607e-05
 Reference value :  3.40765e-05
 Reference value :  3.41115e-05
 Reference value :  3.41858e-05
 Reference value :  3.42501e-05
 Reference value :  3.42502e-05
 Reference value :  3.42503e-05
 Reference value :  3.42504e-05
 Reference value :  3.42514e-05
 Reference value :  3.42530e-05
 Reference value :  3.42544e-05
 Reference value :  3.42567e-05
 Reference value :  3.42614e-05
 Reference value :  3.42839e-05
 Reference value :  3.45000e-05
 Reference value :  3.45001e-05
 Reference value :  3.45001e-05
 Reference value :  3.45002e-05
 Reference value :  3.45008e-05
 Reference value :  3.45018e-05
 Reference value :  3.45027e-05
 Reference value :  3.45038e-05
 Reference value :  3.45051e-05
 Reference value :  3.45089e-05
 Reference value :  3.45127e-05
 Reference value :  3.45156e-05
 Reference value :  3.45212e-05
 Reference value :  3.45558e-05
 Reference value :  3.47501e-05
 Reference value :  3.47502e-05
 Reference value :  3.47504e-05
 Reference value :  3.47514e-05
 Reference value :  3.47530e-05
 Reference value :  3.47544e-05
 Reference value :  3.47567e-05
 Reference value :  3.47614e-05
 Reference value :  3.48395e-05
 Reference value :  3.50000e-05
 Reference value :  3.50001e-05
 Reference value :  3.50002e-05
 Reference value :  3.50013e-05
 Reference value :  3.50022e-05
 Reference value :  3.50039e-05
 Reference value :  3.50050e-05
 Reference value :  3.50061e-05
 Reference value :  3.50100e-05
 Reference value :  3.50128e-05
 Reference value :  3.50160e-05
 Reference value :  3.50182e-05
 Reference value :  3.50228e-05
 Reference value :  3.50592e-05
 Reference value :  3.52163e-05
 Reference value :  3.52501e-05
 Reference value :  3.52502e-05
 Reference value :  3.52503e-05
 Reference value :  3.52509e-05
 Reference value :  3.52524e-05
 Reference value :  3.52544e-05
 Reference value :  3.52558e-05
 Reference value :  3.52594e-05
 Reference value :  3.52721e-05
 Reference value :  3.52911e-05
 Reference value :  3.53088e-05
 Reference value :  3.54416e-05
 Reference value :  3.55000e-05
 Reference value :  3.55002e-05
 Reference value :  3.55013e-05
 Reference value :  3.55026e-05
 Reference value :  3.55047e-05
 Reference value :  3.55073e-05
 Reference value :  3.55090e-05
 Reference value :  3.55148e-05
 Reference value :  3.56592e-05
 Reference value :  3.57502e-05
 Reference value :  3.57503e-05
 Reference value :  3.57507e-05
 Reference value :  3.57514e-05
 Reference value :  3.57530e-05
 Reference value :  3.57544e-05
 Reference value :  3.57567e-05
 Reference value :  3.57584e-05
 Reference value :  3.57621e-05
 Reference value :  3.57875e-05
 Reference value :  3.60000e-05
 Reference value :  3.60012e-05
 Reference value :  3.60037e-05
 Reference value :  3.60050e-05
 Reference value :  3.60072e-05
 Reference value :  3.60102e-05
 Reference value :  3.60122e-05
 Reference value :  3.60141e-05
 Reference value :  3.60168e-05
 Reference value :  3.60188e-05
 Reference value :  3.60255e-05
 Reference value :  3.60339e-05
 Reference value :  3.60422e-05
 Reference value :  3.60477e-05
 Reference value :  3.60495e-05
 Reference value :  3.60588e-05
 Reference value :  3.60870e-05
 Reference value :  3.61381e-05
 Reference value :  3.62501e-05
 Reference value :  3.62501e-05
 Reference value :  3.62502e-05
 Reference value :  3.62503e-05
 Reference value :  3.62504e-05
 Reference value :  3.62514e-05
 Reference value :  3.62524e-05
 Reference value :  3.62538e-05
 Reference value :  3.62550e-05
 Reference value :  3.62576e-05
 Reference value :  3.62653e-05
 Reference value :  3.63041e-05
 Reference value :  3.65000e-05
 Reference value :  3.65001e-05
 Reference value :  3.65002e-05
 Reference value :  3.65013e-05
 Reference value :  3.65027e-05
 Reference value :  3.65038e-05
 Reference value :  3.65051e-05
 Reference value :  3.65072e-05
 Reference value :  3.65093e-05
 Reference value :  3.65116e-05
 Reference value :  3.65205e-05
 Reference value :  3.67501e-05
 Reference value :  3.67502e-05
 Reference value :  3.67502e-05
 Reference value :  3.67504e-05
 Reference value :  3.67514e-05
 Reference value :  3.67530e-05
 Reference value :  3.67538e-05
 Reference value :  3.67544e-05
 Reference value :  3.67558e-05
 Reference value :  3.67592e-05
 Reference value :  3.67839e-05
 Reference value :  3.70000e-05
 Reference value :  3.70001e-05
 Reference value :  3.70002e-05
 Reference value :  3.70008e-05
 Reference value :  3.70018e-05
 Reference value :  3.70033e-05
 Reference value :  3.70044e-05
 Reference value :  3.70056e-05
 Reference value :  3.70061e-05
 Reference value :  3.70084e-05
 Reference value :  3.70114e-05
 Reference value :  3.70128e-05
 Reference value :  3.70139e-05
 Reference value :  3.70160e-05
 Reference value :  3.70181e-05
 Reference value :  3.70225e-05
 Reference value :  3.70542e-05
 Reference value :  3.72105e-05
 Reference value :  3.72502e-05
 Reference value :  3.72503e-05
 Reference value :  3.72507e-05
 Reference value :  3.72514e-05
 Reference value :  3.72530e-05
 Reference value :  3.72544e-05
 Reference value :  3.72567e-05
 Reference value :  3.72655e-05
 Reference value :  3.74065e-05
 Reference value :  3.75001e-05
 Reference value :  3.75002e-05
 Reference value :  3.75005e-05
 Reference value :  3.75013e-05
 Reference value :  3.75022e-05
 Reference value :  3.75032e-05
 Reference value :  3.75044e-05
 Reference value :  3.75072e-05
 Reference value :  3.75092e-05
 Reference value :  3.75115e-05
 Reference value :  3.75288e-05
 Reference value :  3.77501e-05
 Reference value :  3.77502e-05
 Reference value :  3.77502e-05
 Reference value :  3.77504e-05
 Reference value :  3.77514e-05
 Reference value :  3.77530e-05
 Reference value :  3.77544e-05
 Reference value :  3.77567e-05
 Reference value :  3.77614e-05
 Reference value :  3.77839e-05
 Reference value :  3.79052e-05
 Reference value :  3.80000e-05
 Reference value :  3.80001e-05
 Reference value :  3.80005e-05
 Reference value :  3.80018e-05
 Reference value :  3.80027e-05
 Reference value :  3.80039e-05
 Reference value :  3.80050e-05
 Reference value :  3.80061e-05
 Reference value :  3.80100e-05
 Reference value :  3.80127e-05
 Reference value :  3.80148e-05
 Reference value :  3.80170e-05
 Reference value :  3.80225e-05
 Reference value :  3.80417e-05
 Reference value :  3.80562e-05
 Reference value :  3.80880e-05
 Reference value :  3.82038e-05
 Reference value :  3.82437e-05
 Reference value :  3.82502e-05
 Reference value :  3.82504e-05
 Reference value :  3.82514e-05
 Reference value :  3.82538e-05
 Reference value :  3.82557e-05
 Reference value :  3.82615e-05
 Reference value :  3.83401e-05
 Reference value :  3.85018e-05
 Reference value :  3.85074e-05
 Reference value :  3.85124e-05
 Reference value :  3.85310e-05
 Reference value :  3.87501e-05
 Reference value :  3.87502e-05
 Reference value :  3.87507e-05
 Reference value :  3.87519e-05
 Reference value :  3.87530e-05
 Reference value :  3.87542e-05
 Reference value :  3.87555e-05
 Reference value :  3.87583e-05
 Reference value :  3.87780e-05
 Reference value :  3.88835e-05
 Reference value :  3.90000e-05
 Reference value :  3.90000e-05
 Reference value :  3.90001e-05
 Reference value :  3.90002e-05
 Reference value :  3.90005e-05
 Reference value :  3.90013e-05
 Reference value :  3.90022e-05
 Reference value :  3.90033e-05
 Reference value :  3.90044e-05
 Reference value :  3.90056e-05
 Reference value :  3.90061e-05
 Reference value :  3.90067e-05
 Reference value :  3.90084e-05
 Reference value :  3.90114e-05
 Reference value :  3.90128e-05
 Reference value :  3.90139e-05
 Reference value :  3.90160e-05
 Reference value :  3.90171e-05
 Reference value :  3.90194e-05
 Reference value :  3.90228e-05
 Reference value :  3.90372e-05
 Reference value :  3.90418e-05
 Reference value :  3.90459e-05
 Reference value :  3.90553e-05
 Reference value :  3.90731e-05
 Reference value :  3.91011e-05
 Reference value :  3.91818e-05
 Reference value :  3.92501e-05
 Reference value :  3.92502e-05
 Reference value :  3.92503e-05
 Reference value :  3.92507e-05
 Reference value :  3.92514e-05
 Reference value :  3.92524e-05
 Reference value :  3.92537e-05
 Reference value :  3.92551e-05
 Reference value :  3.92579e-05
 Reference value :  3.92728e-05
 Reference value :  3.94005e-05
 Reference value :  3.95001e-05
 Reference value :  3.95002e-05
 Reference value :  3.95005e-05
 Reference value :  3.95013e-05
 Reference value :  3.95022e-05
 Reference value :  3.95039e-05
 Reference value :  3.95055e-05
 Reference value :  3.95073e-05
 Reference value :  3.95090e-05
 Reference value :  3.95124e-05
 Reference value :  3.95475e-05
 Reference value :  3.97501e-05
 Reference value :  3.97502e-05
 Reference value :  3.97503e-05
 Reference value :  3.97504e-05
 Reference value :  3.97509e-05
 Reference value :  3.97518e-05
 Reference value :  3.97530e-05
 Reference value :  3.97544e-05
 Reference value :  3.97558e-05
 Reference value :  3.97576e-05
 Reference value :  3.97593e-05
 Reference value :  3.97621e-05
 Reference value :  3.97874e-05
 Reference value :  3.99246e-05
 Reference value :  4.00000e-05
 Reference value :  4.00001e-05
 Reference value :  4.00001e-05
 Reference value :  4.00002e-05
 Reference value :  4.00005e-05
 Reference value :  4.00013e-05
 Reference value :  4.00022e-05
 Reference value :  4.00033e-05
 Reference value :  4.00044e-05
 Reference value :  4.00056e-05
 Reference value :  4.00061e-05
 Reference value :  4.00076e-05
 Reference value :  4.00097e-05
 Reference value :  4.00107e-05
 Reference value :  4.00129e-05
 Reference value :  4.00137e-05
 Reference value :  4.00155e-05
 Reference value :  4.00176e-05
 Reference value :  4.00197e-05
 Reference value :  4.00213e-05
 Reference value :  4.00248e-05
 Reference value :  4.00264e-05
 Reference value :  4.00295e-05
 Reference value :  4.00336e-05
 Reference value :  4.00363e-05
 Reference value :  4.00508e-05
 Reference value :  4.00897e-05
 Reference value :  4.02501e-05
 Reference value :  4.02501e-05
 Reference value :  4.02502e-05
 Reference value :  4.02503e-05
 Reference value :  4.02507e-05
 Reference value :  4.02518e-05
 Reference value :  4.02538e-05
 Reference value :  4.02550e-05
 Reference value :  4.02576e-05
 Reference value :  4.02614e-05
 Reference value :  4.03049e-05
 Reference value :  4.05000e-05
 Reference value :  4.05001e-05
 Reference value :  4.05002e-05
 Reference value :  4.05003e-05
 Reference value :  4.05013e-05
 Reference value :  4.05022e-05
 Reference value :  4.05032e-05
 Reference value :  4.05044e-05
 Reference value :  4.05062e-05
 Reference value :  4.05082e-05
 Reference value :  4.05104e-05
 Reference value :  4.05129e-05
 Reference value :  4.05287e-05
 Reference value :  4.06449e-05
 Reference value :  4.07501e-05
 Reference value :  4.07502e-05
 Reference value :  4.07502e-05
 Reference value :  4.07503e-05
 Reference value :  4.07507e-05
 Reference value :  4.07514e-05
 Reference value :  4.07524e-05
 Reference value :  4.07538e-05
 Reference value :  4.07551e-05
 Reference value :  4.07567e-05
 Reference value :  4.07614e-05
 Reference value :  4.07838e-05
 Reference value :  4.10000e-05
 Reference value :  4.10015e-05
 Reference value :  4.10045e-05
 Reference value :  4.10061e-05
 Reference value :  4.10092e-05
 Reference value :  4.10106e-05
 Reference value :  4.10120e-05
 Reference value :  4.10145e-05
 Reference value :  4.10155e-05
 Reference value :  4.10168e-05
 Reference value :  4.10179e-05
 Reference value :  4.10206e-05
 Reference value :  4.10228e-05
 Reference value :  4.10250e-05
 Reference value :  4.10288e-05
 Reference value :  4.10328e-05
 Reference value :  4.10446e-05
 Reference value :  4.10608e-05
 Reference value :  4.11090e-05
 Reference value :  4.12501e-05
 Reference value :  4.12502e-05
 Reference value :  4.12503e-05
 Reference value :  4.12509e-05
 Reference value :  4.12519e-05
 Reference value :  4.12537e-05
 Reference value :  4.12558e-05
 Reference value :  4.12659e-05
 Reference value :  4.13382e-05
 Reference value :  4.15000e-05
 Reference value :  4.15001e-05
 Reference value :  4.15003e-05
 Reference value :  4.15013e-05
 Reference value :  4.15022e-05
 Reference value :  4.15039e-05
 Reference value :  4.15066e-05
 Reference value :  4.15090e-05
 Reference value :  4.15148e-05
 Reference value :  4.15470e-05
 Reference value :  4.17501e-05
 Reference value :  4.17501e-05
 Reference value :  4.17502e-05
 Reference value :  4.17504e-05
 Reference value :  4.17509e-05
 Reference value :  4.17514e-05
 Reference value :  4.17524e-05
 Reference value :  4.17538e-05
 Reference value :  4.17544e-05
 Reference value :  4.17558e-05
 Reference value :  4.17576e-05
 Reference value :  4.17584e-05
 Reference value :  4.17621e-05
 Reference value :  4.18070e-05
 Reference value :  4.20000e-05
 Reference value :  4.20001e-05
 Reference value :  4.20002e-05
 Reference value :  4.20013e-05
 Reference value :  4.20027e-05
 Reference value :  4.20044e-05
 Reference value :  4.20056e-05
 Reference value :  4.20067e-05
 Reference value :  4.20093e-05
 Reference value :  4.20108e-05
 Reference value :  4.20151e-05
 Reference value :  4.20171e-05
 Reference value :  4.20222e-05
 Reference value :  4.20264e-05
 Reference value :  4.20366e-05
 Reference value :  4.20408e-05
 Reference value :  4.20497e-05
 Reference value :  4.20767e-05
 Reference value :  4.21263e-05
 Reference value :  4.22501e-05
 Reference value :  4.22501e-05
 Reference value :  4.22502e-05
 Reference value :  4.22502e-05
 Reference value :  4.22503e-05
 Reference value :  4.22507e-05
 Reference value :  4.22514e-05
 Reference value :  4.22524e-05
 Reference value :  4.22539e-05
 Reference value :  4.22556e-05
 Reference value :  4.22592e-05
 Reference value :  4.22806e-05
 Reference value :  4.24964e-05
 Reference value :  4.25000e-05
 Reference value :  4.25000e-05
 Reference value :  4.25000e-05
 Reference value :  4.25000e-05
 Reference value :  4.25000e-05
 Reference value :  4.25001e-05
 Reference value :  4.25001e-05
 Reference value :  4.25001e-05
 Reference value :  4.25003e-05
 Reference value :  4.25008e-05
 Reference value :  4.25012e-05
 Reference value :  4.25017e-05
 Reference value :  4.25022e-05
 Reference value :  4.25033e-05
 Reference value :  4.25048e-05
 Reference value :  4.25054e-05
 Reference value :  4.25068e-05
 Reference value :  4.25092e-05
 Reference value :  4.25142e-05
 Reference value :  4.25270e-05
 Reference value :  4.25315e-05
 Reference value :  4.25389e-05
 Reference value :  4.25447e-05
 Reference value :  4.25557e-05
 Reference value :  4.25804e-05
 Reference value :  4.26554e-05
 Reference value :  4.27501e-05
 Reference value :  4.27502e-05
 Reference value :  4.27503e-05
 Reference value :  4.27507e-05
 Reference value :  4.27514e-05
 Reference value :  4.27524e-05
 Reference value :  4.27544e-05
 Reference value :  4.27557e-05
 Reference value :  4.27567e-05
 Reference value :  4.27655e-05
 Reference value :  4.28046e-05
 Reference value :  4.29047e-05
 Reference value :  4.30000e-05
 Reference value :  4.30001e-05
 Reference value :  4.30002e-05
 Reference value :  4.30008e-05
 Reference value :  4.30018e-05
 Reference value :  4.30027e-05
 Reference value :  4.30038e-05
 Reference value :  4.30051e-05
 Reference value :  4.30072e-05
 Reference value :  4.30089e-05
 Reference value :  4.30114e-05
 Reference value :  4.30143e-05
 Reference value :  4.30156e-05
 Reference value :  4.30191e-05
 Reference value :  4.30319e-05
 Reference value :  4.32501e-05
 Reference value :  4.32502e-05
 Reference value :  4.32503e-05
 Reference value :  4.32514e-05
 Reference value :  4.32538e-05
 Reference value :  4.32558e-05
 Reference value :  4.32614e-05
 Reference value :  4.34046e-05
 Reference value :  4.35018e-05
 Reference value :  4.35072e-05
 Reference value :  4.35127e-05
 Reference value :  4.35153e-05
 Reference value :  4.35177e-05
 Reference value :  4.35225e-05
 Reference value :  4.35464e-05
 Reference value :  4.37501e-05
 Reference value :  4.37502e-05
 Reference value :  4.37503e-05
 Reference value :  4.37507e-05
 Reference value :  4.37519e-05
 Reference value :  4.37536e-05
 Reference value :  4.37549e-05
 Reference value :  4.37573e-05
 Reference value :  4.37642e-05
 Reference value :  4.37877e-05
 Reference value :  4.38106e-05
 Reference value :  4.39069e-05
 Reference value :  4.40000e-05
 Reference value :  4.40001e-05
 Reference value :  4.40003e-05
 Reference value :  4.40013e-05
 Reference value :  4.40022e-05
 Reference value :  4.40039e-05
 Reference value :  4.40055e-05
 Reference value :  4.40073e-05
 Reference value :  4.40090e-05
 Reference value :  4.40124e-05
 Reference value :  4.40476e-05
 Reference value :  4.42501e-05
 Reference value :  4.42502e-05
 Reference value :  4.42503e-05
 Reference value :  4.42509e-05
 Reference value :  4.42518e-05
 Reference value :  4.42538e-05
 Reference value :  4.42550e-05
 Reference value :  4.42567e-05
 Reference value :  4.42584e-05
 Reference value :  4.42621e-05
 Reference value :  4.42752e-05
 Reference value :  4.44252e-05
 Reference value :  4.45000e-05
 Reference value :  4.45001e-05
 Reference value :  4.45002e-05
 Reference value :  4.45005e-05
 Reference value :  4.45018e-05
 Reference value :  4.45033e-05
 Reference value :  4.45044e-05
 Reference value :  4.45056e-05
 Reference value :  4.45067e-05
 Reference value :  4.45097e-05
 Reference value :  4.45107e-05
 Reference value :  4.45128e-05
 Reference value :  4.45145e-05
 Reference value :  4.45165e-05
 Reference value :  4.45187e-05
 Reference value :  4.45213e-05
 Reference value :  4.45261e-05
 Reference value :  4.45353e-05
 Reference value :  4.45398e-05
 Reference value :  4.45439e-05
 Reference value :  4.45461e-05
 Reference value :  4.45485e-05
 Reference value :  4.45541e-05
 Reference value :  4.45643e-05
 Reference value :  4.45735e-05
 Reference value :  4.46051e-05
 Reference value :  4.46755e-05
 Reference value :  4.47501e-05
 Reference value :  4.47501e-05
 Reference value :  4.47502e-05
 Reference value :  4.47503e-05
 Reference value :  4.47504e-05
 Reference value :  4.47509e-05
 Reference value :  4.47514e-05
 Reference value :  4.47524e-05
 Reference value :  4.47538e-05
 Reference value :  4.47544e-05
 Reference value :  4.47567e-05
 Reference value :  4.47614e-05
 Reference value :  4.48049e-05
 Reference value :  4.50000e-05
 Reference value :  4.50001e-05
 Reference value :  4.50001e-05
 Reference value :  4.50002e-05
 Reference value :  4.50005e-05
 Reference value :  4.50013e-05
 Reference value :  4.50022e-05
 Reference value :  4.50032e-05
 Reference value :  4.50044e-05
 Reference value :  4.50062e-05
 Reference value :  4.50072e-05
 Reference value :  4.50082e-05
 Reference value :  4.50104e-05
 Reference value :  4.50116e-05
 Reference value :  4.50205e-05
 Reference value :  4.51451e-05
 Reference value :  4.52502e-05
 Reference value :  4.52503e-05
 Reference value :  4.52509e-05
 Reference value :  4.52524e-05
 Reference value :  4.52544e-05
 Reference value :  4.52567e-05
 Reference value :  4.52655e-05
 Reference value :  4.53398e-05
 Reference value :  4.55000e-05
 Reference value :  4.55001e-05
 Reference value :  4.55002e-05
 Reference value :  4.55013e-05
 Reference value :  4.55022e-05
 Reference value :  4.55033e-05
 Reference value :  4.55044e-05
 Reference value :  4.55056e-05
 Reference value :  4.55061e-05
 Reference value :  4.55076e-05
 Reference value :  4.55100e-05
 Reference value :  4.55128e-05
 Reference value :  4.55149e-05
 Reference value :  4.55170e-05
 Reference value :  4.55225e-05
 Reference value :  4.55542e-05
 Reference value :  4.57112e-05
 Reference value :  4.57502e-05
 Reference value :  4.57503e-05
 Reference value :  4.57509e-05
 Reference value :  4.57518e-05
 Reference value :  4.57538e-05
 Reference value :  4.57550e-05
 Reference value :  4.57576e-05
 Reference value :  4.57725e-05
 Reference value :  4.59065e-05
 Reference value :  4.60018e-05
 Reference value :  4.60053e-05
 Reference value :  4.60071e-05
 Reference value :  4.60103e-05
 Reference value :  4.60134e-05
 Reference value :  4.60216e-05
 Reference value :  4.60556e-05
 Reference value :  4.62139e-05
 Reference value :  4.62501e-05
 Reference value :  4.62502e-05
 Reference value :  4.62504e-05
 Reference value :  4.62514e-05
 Reference value :  4.62524e-05
 Reference value :  4.62537e-05
 Reference value :  4.62542e-05
 Reference value :  4.62555e-05
 Reference value :  4.62573e-05
 Reference value :  4.62608e-05
 Reference value :  4.62693e-05
 Reference value :  4.62964e-05
 Reference value :  4.64896e-05
 Reference value :  4.65000e-05
 Reference value :  4.65001e-05
 Reference value :  4.65002e-05
 Reference value :  4.65003e-05
 Reference value :  4.65008e-05
 Reference value :  4.65018e-05
 Reference value :  4.65027e-05
 Reference value :  4.65039e-05
 Reference value :  4.65044e-05
 Reference value :  4.65056e-05
 Reference value :  4.65061e-05
 Reference value :  4.65076e-05
 Reference value :  4.65100e-05
 Reference value :  4.65128e-05
 Reference value :  4.65139e-05
 Reference value :  4.65160e-05
 Reference value :  4.65170e-05
 Reference value :  4.65193e-05
 Reference value :  4.65225e-05
 Reference value :  4.65298e-05
 Reference value :  4.65435e-05
 Reference value :  4.65485e-05
 Reference value :  4.65594e-05
 Reference value :  4.65791e-05
 Reference value :  4.66106e-05
 Reference value :  4.66916e-05
 Reference value :  4.67227e-05
 Reference value :  4.67352e-05
 Reference value :  4.67501e-05
 Reference value :  4.67502e-05
 Reference value :  4.67502e-05
 Reference value :  4.67504e-05
 Reference value :  4.67514e-05
 Reference value :  4.67524e-05
 Reference value :  4.67544e-05
 Reference value :  4.67557e-05
 Reference value :  4.67576e-05
 Reference value :  4.67654e-05
 Reference value :  4.68049e-05
 Reference value :  4.70000e-05
 Reference value :  4.70000e-05
 Reference value :  4.70001e-05
 Reference value :  4.70002e-05
 Reference value :  4.70008e-05
 Reference value :  4.70018e-05
 Reference value :  4.70027e-05
 Reference value :  4.70038e-05
 Reference value :  4.70051e-05
 Reference value :  4.70072e-05
 Reference value :  4.70093e-05
 Reference value :  4.70116e-05
 Reference value :  4.70288e-05
 Reference value :  4.72501e-05
 Reference value :  4.72502e-05
 Reference value :  4.72502e-05
 Reference value :  4.72504e-05
 Reference value :  4.72514e-05
 Reference value :  4.72530e-05
 Reference value :  4.72544e-05
 Reference value :  4.72558e-05
 Reference value :  4.72614e-05
 Reference value :  4.73396e-05
 Reference value :  4.75000e-05
 Reference value :  4.75001e-05
 Reference value :  4.75002e-05
 Reference value :  4.75005e-05
 Reference value :  4.75018e-05
 Reference value :  4.75027e-05
 Reference value :  4.75033e-05
 Reference value :  4.75044e-05
 Reference value :  4.75056e-05
 Reference value :  4.75061e-05
 Reference value :  4.75084e-05
 Reference value :  4.75114e-05
 Reference value :  4.75139e-05
 Reference value :  4.75171e-05
 Reference value :  4.75211e-05
 Reference value :  4.75372e-05
 Reference value :  4.75470e-05
 Reference value :  4.75684e-05
 Reference value :  4.76406e-05
 Reference value :  4.77501e-05
 Reference value :  4.77502e-05
 Reference value :  4.77507e-05
 Reference value :  4.77514e-05
 Reference value :  4.77530e-05
 Reference value :  4.77544e-05
 Reference value :  4.77567e-05
 Reference value :  4.77660e-05
 Reference value :  4.79006e-05
 Reference value :  4.80001e-05
 Reference value :  4.80002e-05
 Reference value :  4.80005e-05
 Reference value :  4.80013e-05
 Reference value :  4.80022e-05
 Reference value :  4.80039e-05
 Reference value :  4.80055e-05
 Reference value :  4.80073e-05
 Reference value :  4.80090e-05
 Reference value :  4.80124e-05
 Reference value :  4.80850e-05
 Reference value :  4.82501e-05
 Reference value :  4.82502e-05
 Reference value :  4.82507e-05
 Reference value :  4.82514e-05
 Reference value :  4.82530e-05
 Reference value :  4.82544e-05
 Reference value :  4.82567e-05
 Reference value :  4.82593e-05
 Reference value :  4.82752e-05
 Reference value :  4.85000e-05
 Reference value :  4.85001e-05
 Reference value :  4.85003e-05
 Reference value :  4.85013e-05
 Reference value :  4.85022e-05
 Reference value :  4.85039e-05
 Reference value :  4.85050e-05
 Reference value :  4.85056e-05
 Reference value :  4.85067e-05
 Reference value :  4.85097e-05
 Reference value :  4.85117e-05
 Reference value :  4.85136e-05
 Reference value :  4.85155e-05
 Reference value :  4.85175e-05
 Reference value :  4.85196e-05
 Reference value :  4.85211e-05
 Reference value :  4.85246e-05
 Reference value :  4.85296e-05
 Reference value :  4.85478e-05
 Reference value :  4.86148e-05
 Reference value :  4.87501e-05
 Reference value :  4.87502e-05
 Reference value :  4.87503e-05
 Reference value :  4.87507e-05
 Reference value :  4.87514e-05
 Reference value :  4.87524e-05
 Reference value :  4.87538e-05
 Reference value :  4.87550e-05
 Reference value :  4.87576e-05
 Reference value :  4.87725e-05
 Reference value :  4.90000e-05
 Reference value :  4.90001e-05
 Reference value :  4.90002e-05
 Reference value :  4.90008e-05
 Reference value :  4.90018e-05
 Reference value :  4.90022e-05
 Reference value :  4.90032e-05
 Reference value :  4.90044e-05
[...]
 Reference value :  1.67000e-04
 Reference value :  1.67000e-04
 Reference value :  1.67000e-04
 Reference value :  1.67001e-04
 Reference value :  1.67002e-04
 Reference value :  1.67003e-04
 Reference value :  1.67005e-04
 Reference value :  1.67008e-04
 Reference value :  1.67012e-04
 Reference value :  1.67079e-04
 Reference value :  1.67250e-04
 Reference value :  1.67250e-04
 Reference value :  1.67251e-04
 Reference value :  1.67253e-04
 Reference value :  1.67254e-04
 Reference value :  1.67257e-04
 Reference value :  1.67265e-04
 Reference value :  1.67305e-04
 Reference value :  1.67500e-04
 Reference value :  1.67500e-04
 Reference value :  1.67500e-04
 Reference value :  1.67501e-04
 Reference value :  1.67502e-04
 Reference value :  1.67503e-04
 Reference value :  1.67504e-04
 Reference value :  1.67505e-04
 Reference value :  1.67506e-04
 Reference value :  1.67507e-04
 Reference value :  1.67510e-04
 Reference value :  1.67513e-04
 Reference value :  1.67515e-04
 Reference value :  1.67517e-04
 Reference value :  1.67519e-04
 Reference value :  1.67526e-04
 Reference value :  1.67536e-04
 Reference value :  1.67546e-04
 Reference value :  1.67562e-04
 Reference value :  1.67585e-04
 Reference value :  1.67695e-04
 Reference value :  1.67750e-04
 Reference value :  1.67750e-04
 Reference value :  1.67750e-04
 Reference value :  1.67751e-04
 Reference value :  1.67752e-04
 Reference value :  1.67754e-04
 Reference value :  1.67756e-04
 Reference value :  1.67759e-04
 Reference value :  1.67785e-04
 Reference value :  1.68000e-04
 Reference value :  1.68000e-04
 Reference value :  1.68000e-04
 Reference value :  1.68000e-04
 Reference value :  1.68001e-04
 Reference value :  1.68002e-04
 Reference value :  1.68004e-04
 Reference value :  1.68006e-04
 Reference value :  1.68007e-04
 Reference value :  1.68009e-04
 Reference value :  1.68011e-04
 Reference value :  1.68029e-04
 Reference value :  1.68250e-04
 Reference value :  1.68250e-04
 Reference value :  1.68250e-04
 Reference value :  1.68250e-04
 Reference value :  1.68251e-04
 Reference value :  1.68252e-04
 Reference value :  1.68254e-04
 Reference value :  1.68255e-04
 Reference value :  1.68257e-04
 Reference value :  1.68258e-04
 Reference value :  1.68262e-04
 Reference value :  1.68287e-04
 Reference value :  1.68500e-04
 Reference value :  1.68500e-04
 Reference value :  1.68500e-04
 Reference value :  1.68501e-04
 Reference value :  1.68502e-04
 Reference value :  1.68503e-04
 Reference value :  1.68504e-04
 Reference value :  1.68506e-04
 Reference value :  1.68508e-04
 Reference value :  1.68511e-04
 Reference value :  1.68514e-04
 Reference value :  1.68515e-04
 Reference value :  1.68518e-04
 Reference value :  1.68522e-04
 Reference value :  1.68565e-04
 Reference value :  1.68750e-04
 Reference value :  1.68750e-04
 Reference value :  1.68751e-04
 Reference value :  1.68754e-04
 Reference value :  1.68756e-04
 Reference value :  1.68761e-04
 Reference value :  1.68840e-04
 Reference value :  1.69000e-04
 Reference value :  1.69000e-04
 Reference value :  1.69001e-04
 Reference value :  1.69002e-04
 Reference value :  1.69003e-04
 Reference value :  1.69004e-04
 Reference value :  1.69006e-04
 Reference value :  1.69008e-04
 Reference value :  1.69012e-04
 Reference value :  1.69029e-04
 Reference value :  1.69250e-04
 Reference value :  1.69250e-04
 Reference value :  1.69250e-04
 Reference value :  1.69251e-04
 Reference value :  1.69251e-04
 Reference value :  1.69253e-04
 Reference value :  1.69254e-04
 Reference value :  1.69257e-04
 Reference value :  1.69261e-04
 Reference value :  1.69305e-04
 Reference value :  1.69500e-04
 Reference value :  1.69500e-04
 Reference value :  1.69500e-04
 Reference value :  1.69500e-04
 Reference value :  1.69500e-04
 Reference value :  1.69501e-04
 Reference value :  1.69502e-04
 Reference value :  1.69502e-04
 Reference value :  1.69503e-04
 Reference value :  1.69504e-04
 Reference value :  1.69506e-04
 Reference value :  1.69507e-04
 Reference value :  1.69508e-04
 Reference value :  1.69510e-04
 Reference value :  1.69527e-04
 Reference value :  1.69649e-04
 Reference value :  1.69750e-04
 Reference value :  1.69750e-04
 Reference value :  1.69750e-04
 Reference value :  1.69751e-04
 Reference value :  1.69752e-04
 Reference value :  1.69753e-04
 Reference value :  1.69754e-04
 Reference value :  1.69756e-04
 Reference value :  1.69758e-04
 Reference value :  1.69765e-04
 Reference value :  1.69796e-04
 Reference value :  1.69997e-04
 Reference value :  1.70000e-04
 Reference value :  1.70000e-04
 Reference value :  1.70000e-04
 Reference value :  1.70000e-04
 Reference value :  1.70000e-04
 Reference value :  1.70001e-04
 Reference value :  1.70002e-04
 Reference value :  1.70004e-04
 Reference value :  1.70005e-04
 Reference value :  1.70007e-04
 Reference value :  1.70014e-04
 Reference value :  1.70027e-04
 Reference value :  1.70032e-04
 Reference value :  1.70039e-04
 Reference value :  1.70044e-04
 Reference value :  1.70053e-04
 Reference value :  1.70070e-04
 Reference value :  1.70157e-04
 Reference value :  1.70250e-04
 Reference value :  1.70250e-04
 Reference value :  1.70250e-04
 Reference value :  1.70251e-04
 Reference value :  1.70251e-04
 Reference value :  1.70253e-04
 Reference value :  1.70254e-04
 Reference value :  1.70257e-04
 Reference value :  1.70266e-04
 Reference value :  1.70340e-04
 Reference value :  1.70500e-04
 Reference value :  1.70500e-04
 Reference value :  1.70500e-04
 Reference value :  1.70502e-04
 Reference value :  1.70503e-04
 Reference value :  1.70505e-04
 Reference value :  1.70509e-04
 Reference value :  1.70511e-04
 Reference value :  1.70513e-04
 Reference value :  1.70516e-04
 Reference value :  1.70519e-04
 Reference value :  1.70532e-04
 Reference value :  1.70651e-04
 Reference value :  1.70750e-04
 Reference value :  1.70750e-04
 Reference value :  1.70750e-04
 Reference value :  1.70751e-04
 Reference value :  1.70752e-04
 Reference value :  1.70753e-04
 Reference value :  1.70754e-04
 Reference value :  1.70757e-04
 Reference value :  1.70761e-04
 Reference value :  1.70784e-04
 Reference value :  1.71000e-04
 Reference value :  1.71000e-04
 Reference value :  1.71000e-04
 Reference value :  1.71000e-04
 Reference value :  1.71001e-04
 Reference value :  1.71002e-04
 Reference value :  1.71003e-04
 Reference value :  1.71004e-04
 Reference value :  1.71006e-04
 Reference value :  1.71006e-04
 Reference value :  1.71008e-04
 Reference value :  1.71010e-04
 Reference value :  1.71013e-04
 Reference value :  1.71014e-04
 Reference value :  1.71016e-04
 Reference value :  1.71017e-04
 Reference value :  1.71021e-04
 Reference value :  1.71032e-04
 Reference value :  1.71090e-04
 Reference value :  1.71225e-04
 Reference value :  1.71250e-04
 Reference value :  1.71250e-04
 Reference value :  1.71250e-04
 Reference value :  1.71250e-04
 Reference value :  1.71251e-04
 Reference value :  1.71252e-04
 Reference value :  1.71253e-04
 Reference value :  1.71254e-04
 Reference value :  1.71257e-04
 Reference value :  1.71261e-04
 Reference value :  1.71282e-04
 Reference value :  1.71307e-04
 Reference value :  1.71316e-04
 Reference value :  1.71334e-04
 Reference value :  1.71349e-04
 Reference value :  1.71380e-04
 Reference value :  1.71485e-04
 Reference value :  1.71500e-04
 Reference value :  1.71500e-04
 Reference value :  1.71500e-04
 Reference value :  1.71501e-04
 Reference value :  1.71502e-04
 Reference value :  1.71503e-04
 Reference value :  1.71504e-04
 Reference value :  1.71507e-04
 Reference value :  1.71508e-04
 Reference value :  1.71509e-04
 Reference value :  1.71511e-04
 Reference value :  1.71528e-04
 Reference value :  1.71750e-04
 Reference value :  1.71750e-04
 Reference value :  1.71750e-04
 Reference value :  1.71750e-04
 Reference value :  1.71751e-04
 Reference value :  1.71753e-04
 Reference value :  1.71754e-04
 Reference value :  1.71756e-04
 Reference value :  1.71758e-04
 Reference value :  1.71758e-04
 Reference value :  1.71762e-04
 Reference value :  1.71788e-04
 Reference value :  1.71927e-04
 Reference value :  1.72000e-04
 Reference value :  1.72000e-04
 Reference value :  1.72000e-04
 Reference value :  1.72001e-04
 Reference value :  1.72002e-04
 Reference value :  1.72002e-04
 Reference value :  1.72003e-04
 Reference value :  1.72004e-04
 Reference value :  1.72006e-04
 Reference value :  1.72006e-04
 Reference value :  1.72008e-04
 Reference value :  1.72010e-04
 Reference value :  1.72011e-04
 Reference value :  1.72013e-04
 Reference value :  1.72014e-04
 Reference value :  1.72016e-04
 Reference value :  1.72018e-04
 Reference value :  1.72020e-04
 Reference value :  1.72026e-04
 Reference value :  1.72029e-04
 Reference value :  1.72034e-04
 Reference value :  1.72045e-04
 Reference value :  1.72087e-04
 Reference value :  1.72250e-04
 Reference value :  1.72250e-04
 Reference value :  1.72250e-04
 Reference value :  1.72251e-04
 Reference value :  1.72252e-04
 Reference value :  1.72253e-04
 Reference value :  1.72254e-04
 Reference value :  1.72256e-04
 Reference value :  1.72259e-04
 Reference value :  1.72284e-04
 Reference value :  1.72500e-04
 Reference value :  1.72500e-04
 Reference value :  1.72500e-04
 Reference value :  1.72500e-04
 Reference value :  1.72501e-04
 Reference value :  1.72502e-04
 Reference value :  1.72503e-04
 Reference value :  1.72504e-04
 Reference value :  1.72506e-04
 Reference value :  1.72508e-04
 Reference value :  1.72512e-04
 Reference value :  1.72529e-04
 Reference value :  1.72750e-04
 Reference value :  1.72750e-04
 Reference value :  1.72750e-04
 Reference value :  1.72751e-04
 Reference value :  1.72751e-04
 Reference value :  1.72752e-04
 Reference value :  1.72754e-04
 Reference value :  1.72755e-04
 Reference value :  1.72757e-04
 Reference value :  1.72761e-04
 Reference value :  1.72784e-04
 Reference value :  1.72905e-04
 Reference value :  1.73000e-04
 Reference value :  1.73000e-04
 Reference value :  1.73000e-04
 Reference value :  1.73001e-04
 Reference value :  1.73002e-04
 Reference value :  1.73003e-04
 Reference value :  1.73004e-04
 Reference value :  1.73004e-04
 Reference value :  1.73006e-04
 Reference value :  1.73007e-04
 Reference value :  1.73008e-04
 Reference value :  1.73011e-04
 Reference value :  1.73013e-04
 Reference value :  1.73014e-04
 Reference value :  1.73016e-04
 Reference value :  1.73017e-04
 Reference value :  1.73019e-04
 Reference value :  1.73025e-04
 Reference value :  1.73054e-04
 Reference value :  1.73220e-04
 Reference value :  1.73250e-04
 Reference value :  1.73250e-04
 Reference value :  1.73251e-04
 Reference value :  1.73252e-04
 Reference value :  1.73254e-04
 Reference value :  1.73255e-04
 Reference value :  1.73258e-04
 Reference value :  1.73273e-04
 Reference value :  1.73406e-04
 Reference value :  1.73500e-04
 Reference value :  1.73500e-04
 Reference value :  1.73500e-04
 Reference value :  1.73501e-04
 Reference value :  1.73502e-04
 Reference value :  1.73503e-04
 Reference value :  1.73504e-04
 Reference value :  1.73506e-04
 Reference value :  1.73508e-04
 Reference value :  1.73510e-04
 Reference value :  1.73515e-04
 Reference value :  1.73579e-04
 Reference value :  1.73750e-04
 Reference value :  1.73750e-04
 Reference value :  1.73750e-04
 Reference value :  1.73751e-04
 Reference value :  1.73752e-04
 Reference value :  1.73754e-04
 Reference value :  1.73755e-04
 Reference value :  1.73758e-04
 Reference value :  1.73761e-04
 Reference value :  1.73784e-04
 Reference value :  1.73905e-04
 Reference value :  1.74000e-04
 Reference value :  1.74000e-04
 Reference value :  1.74000e-04
 Reference value :  1.74001e-04
 Reference value :  1.74002e-04
 Reference value :  1.74003e-04
 Reference value :  1.74004e-04
 Reference value :  1.74005e-04
 Reference value :  1.74006e-04
 Reference value :  1.74008e-04
 Reference value :  1.74013e-04
 Reference value :  1.74015e-04
 Reference value :  1.74017e-04
 Reference value :  1.74019e-04
 Reference value :  1.74025e-04
 Reference value :  1.74050e-04
 Reference value :  1.74070e-04
 Reference value :  1.74086e-04
 Reference value :  1.74099e-04
 Reference value :  1.74140e-04
 Reference value :  1.74250e-04
 Reference value :  1.74250e-04
 Reference value :  1.74250e-04
 Reference value :  1.74251e-04
 Reference value :  1.74251e-04
 Reference value :  1.74252e-04
 Reference value :  1.74254e-04
 Reference value :  1.74254e-04
 Reference value :  1.74256e-04
 Reference value :  1.74258e-04
 Reference value :  1.74266e-04
 Reference value :  1.74305e-04
 Reference value :  1.74500e-04
 Reference value :  1.74500e-04
 Reference value :  1.74500e-04
 Reference value :  1.74500e-04
 Reference value :  1.74501e-04
 Reference value :  1.74502e-04
 Reference value :  1.74503e-04
 Reference value :  1.74504e-04
 Reference value :  1.74505e-04
 Reference value :  1.74507e-04
 Reference value :  1.74509e-04
 Reference value :  1.74512e-04
 Reference value :  1.74529e-04
 Reference value :  1.74750e-04
 Reference value :  1.74750e-04
 Reference value :  1.74750e-04
 Reference value :  1.74751e-04
 Reference value :  1.74752e-04
 Reference value :  1.74754e-04
 Reference value :  1.74755e-04
 Reference value :  1.74757e-04
 Reference value :  1.74761e-04
 Reference value :  1.74805e-04
 Reference value :  1.75000e-04
 Reference value :  1.75000e-04
 Reference value :  1.75000e-04
 Reference value :  1.75000e-04
 Reference value :  1.75001e-04
 Reference value :  1.75002e-04
 Reference value :  1.75003e-04
 Reference value :  1.75004e-04
 Reference value :  1.75006e-04
 Reference value :  1.75007e-04
 Reference value :  1.75010e-04
 Reference value :  1.75013e-04
 Reference value :  1.75015e-04
 Reference value :  1.75017e-04
 Reference value :  1.75021e-04
 Reference value :  1.75036e-04
 Reference value :  1.75042e-04
 Reference value :  1.75050e-04
 Reference value :  1.75055e-04
 Reference value :  1.75072e-04
 Reference value :  1.75103e-04
 Reference value :  1.75140e-04
 Reference value :  1.75147e-04
 Reference value :  1.75158e-04
 Reference value :  1.75209e-04
 Reference value :  1.75250e-04
 Reference value :  1.75250e-04
 Reference value :  1.75250e-04
 Reference value :  1.75251e-04
 Reference value :  1.75251e-04
 Reference value :  1.75253e-04
 Reference value :  1.75254e-04
 Reference value :  1.75257e-04
 Reference value :  1.75266e-04
 Reference value :  1.75340e-04
 Reference value :  1.75500e-04
 Reference value :  1.75500e-04
 Reference value :  1.75500e-04
 Reference value :  1.75501e-04
 Reference value :  1.75502e-04
 Reference value :  1.75503e-04
 Reference value :  1.75504e-04
 Reference value :  1.75506e-04
 Reference value :  1.75508e-04
 Reference value :  1.75510e-04
 Reference value :  1.75515e-04
 Reference value :  1.75579e-04
 Reference value :  1.75750e-04
 Reference value :  1.75750e-04
 Reference value :  1.75750e-04
 Reference value :  1.75751e-04
 Reference value :  1.75751e-04
 Reference value :  1.75753e-04
 Reference value :  1.75754e-04
 Reference value :  1.75757e-04
 Reference value :  1.75765e-04
 Reference value :  1.75840e-04
 Reference value :  1.76000e-04
 Reference value :  1.76000e-04
 Reference value :  1.76000e-04
 Reference value :  1.76001e-04
 Reference value :  1.76002e-04
 Reference value :  1.76003e-04
 Reference value :  1.76004e-04
 Reference value :  1.76005e-04
 Reference value :  1.76006e-04
 Reference value :  1.76008e-04
 Reference value :  1.76011e-04
 Reference value :  1.76013e-04
 Reference value :  1.76015e-04
 Reference value :  1.76017e-04
 Reference value :  1.76021e-04
 Reference value :  1.76031e-04
 Reference value :  1.76036e-04
 Reference value :  1.76046e-04
 Reference value :  1.76056e-04
 Reference value :  1.76073e-04
 Reference value :  1.76188e-04
 Reference value :  1.76250e-04
 Reference value :  1.76250e-04
 Reference value :  1.76250e-04
 Reference value :  1.76251e-04
 Reference value :  1.76251e-04
 Reference value :  1.76252e-04
 Reference value :  1.76254e-04
 Reference value :  1.76255e-04
 Reference value :  1.76257e-04
 Reference value :  1.76262e-04
 Reference value :  1.76285e-04
 Reference value :  1.76401e-04
 Reference value :  1.76461e-04
 Reference value :  1.76500e-04
 Reference value :  1.76500e-04
 Reference value :  1.76500e-04
 Reference value :  1.76500e-04
 Reference value :  1.76501e-04
 Reference value :  1.76502e-04
 Reference value :  1.76503e-04
 Reference value :  1.76504e-04
 Reference value :  1.76506e-04
 Reference value :  1.76508e-04
 Reference value :  1.76510e-04
 Reference value :  1.76513e-04
 Reference value :  1.76528e-04
 Reference value :  1.76572e-04
 Reference value :  1.76683e-04
 Reference value :  1.76750e-04
 Reference value :  1.76750e-04
 Reference value :  1.76750e-04
 Reference value :  1.76751e-04
 Reference value :  1.76751e-04
 Reference value :  1.76752e-04
 Reference value :  1.76754e-04
 Reference value :  1.76754e-04
 Reference value :  1.76756e-04
 Reference value :  1.76758e-04
 Reference value :  1.76765e-04
 Reference value :  1.76805e-04
 Reference value :  1.77000e-04
 Reference value :  1.77000e-04
 Reference value :  1.77000e-04
 Reference value :  1.77000e-04
 Reference value :  1.77000e-04
 Reference value :  1.77001e-04
 Reference value :  1.77001e-04
 Reference value :  1.77002e-04
 Reference value :  1.77003e-04
 Reference value :  1.77004e-04
 Reference value :  1.77006e-04
 Reference value :  1.77006e-04
 Reference value :  1.77008e-04
 Reference value :  1.77011e-04
 Reference value :  1.77013e-04
 Reference value :  1.77014e-04
 Reference value :  1.77016e-04
 Reference value :  1.77017e-04
 Reference value :  1.77019e-04
 Reference value :  1.77025e-04
 Reference value :  1.77033e-04
 Reference value :  1.77040e-04
 Reference value :  1.77048e-04
 Reference value :  1.77059e-04
 Reference value :  1.77084e-04
 Reference value :  1.77200e-04
 Reference value :  1.77250e-04
 Reference value :  1.77250e-04
 Reference value :  1.77250e-04
 Reference value :  1.77251e-04
 Reference value :  1.77252e-04
 Reference value :  1.77253e-04
 Reference value :  1.77254e-04
 Reference value :  1.77256e-04
 Reference value :  1.77259e-04
 Reference value :  1.77273e-04
 Reference value :  1.77338e-04
 Reference value :  1.77500e-04
 Reference value :  1.77500e-04
 Reference value :  1.77500e-04
 Reference value :  1.77500e-04
 Reference value :  1.77501e-04
 Reference value :  1.77502e-04
 Reference value :  1.77504e-04
 Reference value :  1.77506e-04
 Reference value :  1.77507e-04
 Reference value :  1.77509e-04
 Reference value :  1.77511e-04
 Reference value :  1.77520e-04
 Reference value :  1.77583e-04
 Reference value :  1.77750e-04
 Reference value :  1.77750e-04
 Reference value :  1.77750e-04
 Reference value :  1.77751e-04
 Reference value :  1.77751e-04
 Reference value :  1.77752e-04
 Reference value :  1.77754e-04
 Reference value :  1.77755e-04
 Reference value :  1.77757e-04
 Reference value :  1.77758e-04
 Reference value :  1.77762e-04
 Reference value :  1.77775e-04
 Reference value :  1.77923e-04
 Reference value :  1.78000e-04
 Reference value :  1.78000e-04
 Reference value :  1.78000e-04
 Reference value :  1.78001e-04
 Reference value :  1.78002e-04
 Reference value :  1.78003e-04
 Reference value :  1.78004e-04
 Reference value :  1.78006e-04
 Reference value :  1.78007e-04
 Reference value :  1.78008e-04
 Reference value :  1.78010e-04
 Reference value :  1.78015e-04
 Reference value :  1.78022e-04
 Reference value :  1.78035e-04
 Reference value :  1.78051e-04
 Reference value :  1.78093e-04
 Reference value :  1.78250e-04
 Reference value :  1.78250e-04
 Reference value :  1.78251e-04
 Reference value :  1.78252e-04
 Reference value :  1.78255e-04
 Reference value :  1.78265e-04
 Reference value :  1.78496e-04
No. of Data Rows : 25554
ngspice-44 done
