
Note: Compatibility modes selected: hs a


Circuit: ** sch_path: /home/madra/cace/sar-adc-using-sky130-pdk/runs/run_2025-09-01_19-06-49/parameters/inl/run_2/sar_output.sch

option SCALE: Scale is set to 1e-06 for instance and model parameters
option SCALE: Scale is set to 1e-06 for instance and model parameters
option SCALE: Scale is set to 1e-06 for instance and model parameters
option SCALE: Scale is set to 1e-06 for instance and model parameters
Doing analysis at TEMP = 27.000000 and TNOM = 27.000000

Using KLU as Direct Linear Solver
Operating point simulation skipped by 'uic',
  now using transient initial conditions.
 Reference value :  1.00000e-12
 Reference value :  1.19600e-12
 Reference value :  3.12610e-12
 Reference value :  9.25553e-12
 Reference value :  5.70153e-11
 Reference value :  1.14906e-10
 Reference value :  2.54033e-10
 Reference value :  9.58779e-10
 Reference value :  1.89738e-09
 Reference value :  3.23378e-09
 Reference value :  5.12399e-09
 Reference value :  6.06648e-09
 Reference value :  7.53337e-09
 Reference value :  8.99174e-09
 Reference value :  1.09030e-08
 Reference value :  1.25136e-08
 Reference value :  1.56849e-08
 Reference value :  2.58335e-08
 Reference value :  3.97177e-08
 Reference value :  5.97958e-08
 Reference value :  1.34629e-07
 Reference value :  2.50110e-07
 Reference value :  2.50170e-07
 Reference value :  2.50208e-07
 Reference value :  2.50253e-07
 Reference value :  2.50407e-07
 Reference value :  2.50731e-07
 Reference value :  2.51911e-07
 Reference value :  2.53039e-07
 Reference value :  2.53667e-07
 Reference value :  2.54222e-07
 Reference value :  2.56166e-07
 Reference value :  2.59855e-07
 Reference value :  2.72389e-07
 Reference value :  3.43763e-07
 Reference value :  5.00030e-07
 Reference value :  5.00108e-07
 Reference value :  5.00220e-07
 Reference value :  5.00863e-07
 Reference value :  5.02312e-07
 Reference value :  5.03342e-07
 Reference value :  5.05511e-07
 Reference value :  5.07731e-07
 Reference value :  5.11177e-07
 Reference value :  5.13779e-07
 Reference value :  5.17458e-07
 Reference value :  5.27687e-07
 Reference value :  5.49048e-07
 Reference value :  7.09098e-07
 Reference value :  7.50130e-07
 Reference value :  7.50208e-07
 Reference value :  7.50318e-07
 Reference value :  7.50597e-07
 Reference value :  7.51257e-07
 Reference value :  7.51700e-07
 Reference value :  7.52703e-07
 Reference value :  7.54007e-07
 Reference value :  7.55913e-07
 Reference value :  7.57880e-07
 Reference value :  7.62298e-07
 Reference value :  7.74800e-07
 Reference value :  8.66002e-07
 Reference value :  1.00001e-06
 Reference value :  1.00007e-06
 Reference value :  1.00012e-06
 Reference value :  1.00034e-06
 Reference value :  1.00086e-06
 Reference value :  1.00182e-06
 Reference value :  1.00278e-06
 Reference value :  1.00333e-06
 Reference value :  1.00449e-06
 Reference value :  1.00586e-06
 Reference value :  1.00749e-06
 Reference value :  1.01010e-06
 Reference value :  1.01280e-06
 Reference value :  1.01379e-06
 Reference value :  1.01587e-06
 Reference value :  1.01929e-06
 Reference value :  1.02277e-06
 Reference value :  1.03875e-06
 Reference value :  1.07622e-06
 Reference value :  1.09845e-06
 Reference value :  1.11879e-06
 Reference value :  1.13304e-06
 Reference value :  1.14305e-06
 Reference value :  1.15812e-06
 Reference value :  1.18936e-06
 Reference value :  1.25010e-06
 Reference value :  1.25017e-06
 Reference value :  1.25021e-06
 Reference value :  1.25032e-06
 Reference value :  1.25060e-06
 Reference value :  1.25126e-06
 Reference value :  1.25214e-06
 Reference value :  1.25345e-06
 Reference value :  1.25395e-06
 Reference value :  1.25514e-06
 Reference value :  1.25662e-06
 Reference value :  1.26275e-06
 Reference value :  1.29045e-06
 Reference value :  1.50001e-06
 Reference value :  1.50007e-06
 Reference value :  1.50011e-06
 Reference value :  1.50016e-06
 Reference value :  1.50034e-06
 Reference value :  1.50086e-06
 Reference value :  1.50175e-06
 Reference value :  1.50322e-06
 Reference value :  1.50442e-06
 Reference value :  1.50522e-06
 Reference value :  1.50671e-06
 Reference value :  1.50832e-06
 Reference value :  1.51149e-06
 Reference value :  1.54273e-06
 Reference value :  1.75011e-06
 Reference value :  1.75020e-06
 Reference value :  1.75032e-06
 Reference value :  1.75083e-06
 Reference value :  1.75214e-06
 Reference value :  1.75350e-06
 Reference value :  1.75460e-06
 Reference value :  1.75598e-06
 Reference value :  1.75765e-06
 Reference value :  1.76167e-06
 Reference value :  1.78023e-06
 Reference value :  1.91447e-06
 Reference value :  2.00007e-06
 Reference value :  2.00016e-06
 Reference value :  2.00052e-06
 Reference value :  2.00131e-06
 Reference value :  2.00231e-06
 Reference value :  2.00334e-06
 Reference value :  2.00457e-06
 Reference value :  2.00582e-06
 Reference value :  2.00834e-06
 Reference value :  2.01047e-06
 Reference value :  2.01155e-06
 Reference value :  2.01351e-06
 Reference value :  2.01529e-06
 Reference value :  2.01840e-06
 Reference value :  2.02346e-06
 Reference value :  2.04747e-06
 Reference value :  2.06701e-06
 Reference value :  2.10834e-06
 Reference value :  2.13388e-06
 Reference value :  2.17454e-06
 Reference value :  2.25010e-06
 Reference value :  2.25017e-06
 Reference value :  2.25022e-06
 Reference value :  2.25060e-06
 Reference value :  2.25170e-06
 Reference value :  2.25271e-06
 Reference value :  2.25401e-06
 Reference value :  2.25598e-06
 Reference value :  2.26015e-06
 Reference value :  2.29412e-06
 Reference value :  2.50000e-06
 Reference value :  2.50007e-06
 Reference value :  2.50012e-06
 Reference value :  2.50034e-06
 Reference value :  2.50086e-06
 Reference value :  2.50231e-06
 Reference value :  2.50333e-06
 Reference value :  2.50455e-06
 Reference value :  2.50638e-06
 Reference value :  2.50715e-06
 Reference value :  2.50887e-06
 Reference value :  2.51094e-06
 Reference value :  2.51805e-06
 Reference value :  2.58917e-06
 Reference value :  2.75013e-06
 Reference value :  2.75021e-06
 Reference value :  2.75032e-06
 Reference value :  2.75084e-06
 Reference value :  2.75171e-06
 Reference value :  2.75351e-06
 Reference value :  2.75461e-06
 Reference value :  2.75689e-06
 Reference value :  2.76781e-06
 Reference value :  2.88485e-06
 Reference value :  3.00003e-06
 Reference value :  3.00011e-06
 Reference value :  3.00022e-06
 Reference value :  3.00086e-06
 Reference value :  3.00182e-06
 Reference value :  3.00278e-06
 Reference value :  3.00390e-06
 Reference value :  3.00521e-06
 Reference value :  3.00586e-06
 Reference value :  3.00853e-06
 Reference value :  3.01007e-06
 Reference value :  3.01276e-06
 Reference value :  3.01470e-06
 Reference value :  3.01685e-06
 Reference value :  3.02067e-06
 Reference value :  3.02534e-06
 Reference value :  3.03817e-06
 Reference value :  3.04194e-06
 Reference value :  3.04868e-06
 Reference value :  3.05588e-06
 Reference value :  3.06772e-06
 Reference value :  3.08072e-06
 Reference value :  3.13549e-06
 Reference value :  3.25011e-06
 Reference value :  3.25020e-06
 Reference value :  3.25032e-06
 Reference value :  3.25060e-06
 Reference value :  3.25170e-06
 Reference value :  3.25271e-06
 Reference value :  3.25395e-06
 Reference value :  3.25586e-06
 Reference value :  3.25985e-06
 Reference value :  3.29049e-06
 Reference value :  3.50001e-06
 Reference value :  3.50010e-06
 Reference value :  3.50016e-06
 Reference value :  3.50034e-06
 Reference value :  3.50086e-06
 Reference value :  3.50175e-06
 Reference value :  3.50268e-06
 Reference value :  3.50322e-06
 Reference value :  3.50442e-06
 Reference value :  3.50522e-06
 Reference value :  3.50671e-06
 Reference value :  3.50832e-06
 Reference value :  3.51030e-06
 Reference value :  3.51386e-06
 Reference value :  3.54239e-06
 Reference value :  3.75010e-06
 Reference value :  3.75017e-06
 Reference value :  3.75026e-06
 Reference value :  3.75060e-06
 Reference value :  3.75170e-06
 Reference value :  3.75270e-06
 Reference value :  3.75401e-06
 Reference value :  3.75598e-06
 Reference value :  3.75765e-06
 Reference value :  3.76167e-06
 Reference value :  3.77227e-06
 Reference value :  3.81667e-06
 Reference value :  3.91437e-06
 Reference value :  4.00003e-06
 Reference value :  4.00010e-06
 Reference value :  4.00016e-06
 Reference value :  4.00034e-06
 Reference value :  4.00086e-06
 Reference value :  4.00182e-06
 Reference value :  4.00278e-06
 Reference value :  4.00393e-06
 Reference value :  4.00519e-06
 Reference value :  4.00582e-06
 Reference value :  4.00834e-06
 Reference value :  4.01155e-06
 Reference value :  4.01354e-06
 Reference value :  4.01534e-06
 Reference value :  4.01732e-06
 Reference value :  4.01849e-06
 Reference value :  4.02362e-06
 Reference value :  4.04376e-06
 Reference value :  4.05644e-06
 Reference value :  4.06546e-06
 Reference value :  4.08250e-06
 Reference value :  4.12454e-06
 Reference value :  4.25010e-06
 Reference value :  4.25013e-06
 Reference value :  4.25020e-06
 Reference value :  4.25026e-06
 Reference value :  4.25054e-06
 Reference value :  4.25147e-06
 Reference value :  4.25312e-06
 Reference value :  4.25441e-06
 Reference value :  4.25648e-06
 Reference value :  4.25738e-06
 Reference value :  4.26502e-06
 Reference value :  4.31228e-06
 Reference value :  4.34552e-06
 Reference value :  4.37591e-06
 Reference value :  4.39917e-06
 Reference value :  4.45796e-06
 Reference value :  4.50001e-06
 Reference value :  4.50010e-06
 Reference value :  4.50016e-06
 Reference value :  4.50035e-06
 Reference value :  4.50093e-06
 Reference value :  4.50196e-06
 Reference value :  4.50293e-06
 Reference value :  4.50405e-06
 Reference value :  4.50560e-06
 Reference value :  4.50743e-06
 Reference value :  4.50928e-06
 Reference value :  4.51137e-06
 Reference value :  4.52558e-06
 Reference value :  4.60314e-06
 Reference value :  4.75011e-06
 Reference value :  4.75020e-06
 Reference value :  4.75026e-06
 Reference value :  4.75054e-06
 Reference value :  4.75147e-06
 Reference value :  4.75311e-06
 Reference value :  4.75440e-06
 Reference value :  4.75567e-06
 Reference value :  4.75726e-06
 Reference value :  4.76025e-06
 Reference value :  4.76720e-06
 Reference value :  4.79462e-06
 Reference value :  4.91999e-06
 Reference value :  5.00003e-06
 Reference value :  5.00011e-06
 Reference value :  5.00022e-06
 Reference value :  5.00093e-06
 Reference value :  5.00245e-06
 Reference value :  5.00350e-06
 Reference value :  5.00459e-06
 Reference value :  5.00583e-06
 Reference value :  5.00731e-06
 Reference value :  5.01066e-06
 Reference value :  5.01294e-06
 Reference value :  5.01456e-06
 Reference value :  5.01553e-06
 Reference value :  5.01745e-06
 Reference value :  5.02183e-06
 Reference value :  5.02392e-06
 Reference value :  5.02684e-06
 Reference value :  5.02995e-06
 Reference value :  5.03524e-06
 Reference value :  5.04604e-06
 Reference value :  5.07405e-06
 Reference value :  5.19068e-06
 Reference value :  5.25013e-06
 Reference value :  5.25021e-06
 Reference value :  5.25032e-06
 Reference value :  5.25071e-06
 Reference value :  5.25193e-06
 Reference value :  5.25308e-06
 Reference value :  5.25434e-06
 Reference value :  5.25555e-06
 Reference value :  5.25715e-06
 Reference value :  5.26423e-06
 Reference value :  5.30125e-06
 Reference value :  5.50001e-06
 Reference value :  5.50010e-06
 Reference value :  5.50022e-06
 Reference value :  5.50093e-06
 Reference value :  5.50196e-06
 Reference value :  5.50297e-06
 Reference value :  5.50410e-06
 Reference value :  5.50570e-06
 Reference value :  5.50641e-06
 Reference value :  5.50828e-06
 Reference value :  5.51020e-06
 Reference value :  5.51246e-06
 Reference value :  5.54294e-06
 Reference value :  5.75011e-06
 Reference value :  5.75020e-06
 Reference value :  5.75025e-06
 Reference value :  5.75054e-06
 Reference value :  5.75147e-06
 Reference value :  5.75244e-06
 Reference value :  5.75382e-06
 Reference value :  5.75503e-06
 Reference value :  5.75643e-06
 Reference value :  5.76455e-06
 Reference value :  5.85162e-06
 Reference value :  6.00001e-06
 Reference value :  6.00010e-06
 Reference value :  6.00016e-06
 Reference value :  6.00059e-06
 Reference value :  6.00145e-06
 Reference value :  6.00245e-06
 Reference value :  6.00349e-06
 Reference value :  6.00466e-06
 Reference value :  6.00588e-06
 Reference value :  6.00872e-06
 Reference value :  6.01046e-06
 Reference value :  6.01186e-06
 Reference value :  6.01441e-06
 Reference value :  6.01634e-06
 Reference value :  6.01878e-06
 Reference value :  6.02211e-06
 Reference value :  6.03019e-06
 Reference value :  6.03658e-06
 Reference value :  6.06129e-06
 Reference value :  6.09801e-06
 Reference value :  6.12390e-06
 Reference value :  6.25010e-06
 Reference value :  6.25017e-06
 Reference value :  6.25026e-06
 Reference value :  6.25054e-06
 Reference value :  6.25143e-06
 Reference value :  6.25309e-06
 Reference value :  6.25435e-06
 Reference value :  6.25638e-06
 Reference value :  6.26449e-06
 Reference value :  6.34567e-06
 Reference value :  6.50003e-06
 Reference value :  6.50011e-06
 Reference value :  6.50035e-06
 Reference value :  6.50093e-06
 Reference value :  6.50245e-06
 Reference value :  6.50350e-06
 Reference value :  6.50488e-06
 Reference value :  6.50641e-06
 Reference value :  6.50826e-06
 Reference value :  6.51124e-06
 Reference value :  6.52686e-06
 Reference value :  6.75010e-06
 Reference value :  6.75017e-06
 Reference value :  6.75022e-06
 Reference value :  6.75039e-06
 Reference value :  6.75099e-06
 Reference value :  6.75244e-06
 Reference value :  6.75440e-06
 Reference value :  6.75643e-06
 Reference value :  6.76115e-06
 Reference value :  6.78293e-06
 Reference value :  7.00000e-06
 Reference value :  7.00007e-06
 Reference value :  7.00012e-06
 Reference value :  7.00035e-06
 Reference value :  7.00093e-06
 Reference value :  7.00196e-06
 Reference value :  7.00245e-06
 Reference value :  7.00349e-06
 Reference value :  7.00466e-06
 Reference value :  7.00588e-06
 Reference value :  7.00872e-06
 Reference value :  7.01186e-06
 Reference value :  7.01441e-06
 Reference value :  7.01634e-06
 Reference value :  7.01878e-06
 Reference value :  7.02211e-06
 Reference value :  7.03319e-06
 Reference value :  7.07575e-06
 Reference value :  7.14800e-06
 Reference value :  7.24219e-06
 Reference value :  7.25013e-06
 Reference value :  7.25021e-06
 Reference value :  7.25032e-06
 Reference value :  7.25071e-06
 Reference value :  7.25142e-06
 Reference value :  7.25240e-06
 Reference value :  7.25380e-06
 Reference value :  7.25434e-06
 Reference value :  7.25557e-06
 Reference value :  7.25721e-06
 Reference value :  7.26439e-06
 Reference value :  7.30226e-06
 Reference value :  7.42362e-06
 Reference value :  7.50003e-06
 Reference value :  7.50011e-06
 Reference value :  7.50022e-06
 Reference value :  7.50093e-06
 Reference value :  7.50196e-06
 Reference value :  7.50245e-06
 Reference value :  7.50350e-06
 Reference value :  7.50488e-06
 Reference value :  7.50641e-06
 Reference value :  7.50826e-06
 Reference value :  7.51124e-06
 Reference value :  7.52681e-06
 Reference value :  7.75010e-06
 Reference value :  7.75017e-06
 Reference value :  7.75022e-06
 Reference value :  7.75039e-06
 Reference value :  7.75099e-06
 Reference value :  7.75194e-06
 Reference value :  7.75311e-06
 Reference value :  7.75440e-06
 Reference value :  7.75643e-06
 Reference value :  7.76115e-06
 Reference value :  7.78292e-06
 Reference value :  7.93977e-06
 Reference value :  8.00003e-06
 Reference value :  8.00011e-06
 Reference value :  8.00022e-06
 Reference value :  8.00093e-06
 Reference value :  8.00245e-06
 Reference value :  8.00349e-06
 Reference value :  8.00466e-06
 Reference value :  8.00588e-06
 Reference value :  8.00739e-06
 Reference value :  8.00899e-06
 Reference value :  8.01102e-06
 Reference value :  8.02573e-06
 Reference value :  8.14284e-06
 Reference value :  8.25013e-06
 Reference value :  8.25021e-06
 Reference value :  8.25032e-06
 Reference value :  8.25079e-06
 Reference value :  8.25160e-06
 Reference value :  8.25329e-06
 Reference value :  8.25596e-06
 Reference value :  8.25853e-06
 Reference value :  8.27753e-06
 Reference value :  8.41167e-06
 Reference value :  8.50003e-06
 Reference value :  8.50010e-06
 Reference value :  8.50016e-06
 Reference value :  8.50060e-06
 Reference value :  8.50143e-06
 Reference value :  8.50244e-06
 Reference value :  8.50357e-06
 Reference value :  8.50489e-06
 Reference value :  8.50631e-06
 Reference value :  8.51027e-06
 Reference value :  8.52616e-06
 Reference value :  8.53074e-06
 Reference value :  8.53817e-06
 Reference value :  8.54103e-06
 Reference value :  8.55055e-06
 Reference value :  8.57092e-06
 Reference value :  8.63163e-06
 Reference value :  8.75011e-06
 Reference value :  8.75020e-06
 Reference value :  8.75026e-06
 Reference value :  8.75060e-06
 Reference value :  8.75170e-06
 Reference value :  8.75348e-06
 Reference value :  8.75456e-06
 Reference value :  8.75593e-06
 Reference value :  8.76003e-06
 Reference value :  8.77567e-06
 Reference value :  9.00000e-06
 Reference value :  9.00007e-06
 Reference value :  9.00012e-06
 Reference value :  9.00034e-06
 Reference value :  9.00086e-06
 Reference value :  9.00182e-06
 Reference value :  9.00332e-06
 Reference value :  9.00454e-06
 Reference value :  9.00757e-06
 Reference value :  9.01108e-06
 Reference value :  9.01366e-06
 Reference value :  9.01711e-06
 Reference value :  9.02693e-06
 Reference value :  9.10677e-06
 Reference value :  9.25011e-06
 Reference value :  9.25020e-06
 Reference value :  9.25032e-06
 Reference value :  9.25083e-06
 Reference value :  9.25170e-06
 Reference value :  9.25270e-06
 Reference value :  9.25401e-06
 Reference value :  9.25598e-06
 Reference value :  9.26019e-06
 Reference value :  9.29266e-06
 Reference value :  9.50000e-06
 Reference value :  9.50007e-06
 Reference value :  9.50012e-06
 Reference value :  9.50034e-06
 Reference value :  9.50131e-06
 Reference value :  9.50278e-06
 Reference value :  9.50390e-06
 Reference value :  9.50521e-06
 Reference value :  9.50652e-06
 Reference value :  9.51005e-06
 Reference value :  9.51274e-06
 Reference value :  9.51374e-06
 Reference value :  9.51582e-06
 Reference value :  9.51683e-06
 Reference value :  9.51906e-06
 Reference value :  9.52524e-06
 Reference value :  9.55342e-06
 Reference value :  9.62694e-06
 Reference value :  9.63819e-06
 Reference value :  9.65427e-06
 Reference value :  9.70178e-06
 Reference value :  9.75011e-06
 Reference value :  9.75020e-06
 Reference value :  9.75026e-06
 Reference value :  9.75060e-06
 Reference value :  9.75171e-06
 Reference value :  9.75346e-06
 Reference value :  9.75452e-06
 Reference value :  9.75583e-06
 Reference value :  9.75979e-06
 Reference value :  9.78975e-06
 Reference value :  1.00000e-05
 Reference value :  1.00001e-05
 Reference value :  1.00002e-05
 Reference value :  1.00005e-05
 Reference value :  1.00017e-05
 Reference value :  1.00032e-05
 Reference value :  1.00044e-05
 Reference value :  1.00061e-05
 Reference value :  1.00067e-05
 Reference value :  1.00083e-05
 Reference value :  1.00103e-05
 Reference value :  1.00179e-05
 Reference value :  1.00743e-05
 Reference value :  1.02501e-05
 Reference value :  1.02502e-05
 Reference value :  1.02502e-05
 Reference value :  1.02504e-05
 Reference value :  1.02513e-05
 Reference value :  1.02521e-05
 Reference value :  1.02535e-05
 Reference value :  1.02546e-05
 Reference value :  1.02560e-05
 Reference value :  1.02577e-05
 Reference value :  1.02617e-05
 Reference value :  1.02723e-05
 Reference value :  1.03537e-05
 Reference value :  1.05000e-05
 Reference value :  1.05001e-05
 Reference value :  1.05002e-05
 Reference value :  1.05005e-05
 Reference value :  1.05013e-05
 Reference value :  1.05023e-05
 Reference value :  1.05033e-05
 Reference value :  1.05046e-05
 Reference value :  1.05058e-05
 Reference value :  1.05083e-05
 Reference value :  1.05105e-05
 Reference value :  1.05115e-05
 Reference value :  1.05135e-05
 Reference value :  1.05153e-05
 Reference value :  1.05183e-05
 Reference value :  1.05225e-05
 Reference value :  1.05473e-05
 Reference value :  1.06063e-05
 Reference value :  1.06168e-05
 Reference value :  1.06498e-05
 Reference value :  1.06839e-05
 Reference value :  1.07383e-05
 Reference value :  1.07501e-05
 Reference value :  1.07502e-05
 Reference value :  1.07502e-05
 Reference value :  1.07504e-05
 Reference value :  1.07513e-05
 Reference value :  1.07522e-05
 Reference value :  1.07535e-05
 Reference value :  1.07546e-05
 Reference value :  1.07560e-05
 Reference value :  1.07602e-05
 Reference value :  1.07768e-05
 Reference value :  1.08903e-05
 Reference value :  1.10000e-05
 Reference value :  1.10001e-05
 Reference value :  1.10002e-05
 Reference value :  1.10005e-05
 Reference value :  1.10018e-05
 Reference value :  1.10028e-05
 Reference value :  1.10039e-05
 Reference value :  1.10055e-05
 Reference value :  1.10071e-05
 Reference value :  1.10089e-05
 Reference value :  1.10109e-05
 Reference value :  1.10240e-05
 Reference value :  1.11567e-05
 Reference value :  1.12501e-05
 Reference value :  1.12502e-05
 Reference value :  1.12503e-05
 Reference value :  1.12508e-05
 Reference value :  1.12517e-05
 Reference value :  1.12535e-05
 Reference value :  1.12546e-05
 Reference value :  1.12569e-05
 Reference value :  1.12627e-05
 Reference value :  1.13228e-05
 Reference value :  1.15000e-05
 Reference value :  1.15001e-05
 Reference value :  1.15002e-05
 Reference value :  1.15005e-05
 Reference value :  1.15013e-05
 Reference value :  1.15028e-05
 Reference value :  1.15039e-05
 Reference value :  1.15052e-05
 Reference value :  1.15065e-05
 Reference value :  1.15101e-05
 Reference value :  1.15128e-05
 Reference value :  1.15138e-05
 Reference value :  1.15158e-05
 Reference value :  1.15179e-05
 Reference value :  1.15224e-05
 Reference value :  1.15334e-05
 Reference value :  1.15419e-05
 Reference value :  1.15487e-05
 Reference value :  1.15521e-05
 Reference value :  1.15619e-05
 Reference value :  1.15807e-05
 Reference value :  1.16806e-05
 Reference value :  1.17501e-05
 Reference value :  1.17502e-05
 Reference value :  1.17503e-05
 Reference value :  1.17504e-05
 Reference value :  1.17513e-05
 Reference value :  1.17517e-05
 Reference value :  1.17527e-05
 Reference value :  1.17540e-05
 Reference value :  1.17545e-05
 Reference value :  1.17559e-05
 Reference value :  1.17582e-05
 Reference value :  1.17628e-05
 Reference value :  1.17905e-05
 Reference value :  1.20000e-05
 Reference value :  1.20001e-05
 Reference value :  1.20001e-05
 Reference value :  1.20002e-05
 Reference value :  1.20003e-05
 Reference value :  1.20009e-05
 Reference value :  1.20017e-05
 Reference value :  1.20027e-05
 Reference value :  1.20032e-05
 Reference value :  1.20044e-05
 Reference value :  1.20052e-05
 Reference value :  1.20067e-05
 Reference value :  1.20083e-05
 Reference value :  1.20115e-05
 Reference value :  1.20259e-05
 Reference value :  1.21390e-05
 Reference value :  1.22501e-05
 Reference value :  1.22502e-05
 Reference value :  1.22502e-05
 Reference value :  1.22504e-05
 Reference value :  1.22513e-05
 Reference value :  1.22521e-05
 Reference value :  1.22535e-05
 Reference value :  1.22546e-05
 Reference value :  1.22560e-05
 Reference value :  1.22568e-05
 Reference value :  1.22587e-05
 Reference value :  1.22635e-05
 Reference value :  1.22947e-05
 Reference value :  1.24144e-05
 Reference value :  1.25000e-05
 Reference value :  1.25001e-05
 Reference value :  1.25002e-05
 Reference value :  1.25009e-05
 Reference value :  1.25023e-05
 Reference value :  1.25033e-05
 Reference value :  1.25046e-05
 Reference value :  1.25058e-05
 Reference value :  1.25083e-05
 Reference value :  1.25105e-05
 Reference value :  1.25116e-05
 Reference value :  1.25135e-05
 Reference value :  1.25153e-05
 Reference value :  1.25173e-05
 Reference value :  1.25196e-05
 Reference value :  1.25275e-05
 Reference value :  1.25421e-05
 Reference value :  1.25541e-05
 Reference value :  1.25570e-05
 Reference value :  1.25632e-05
 Reference value :  1.25736e-05
 Reference value :  1.25912e-05
 Reference value :  1.26493e-05
 Reference value :  1.27501e-05
 Reference value :  1.27502e-05
 Reference value :  1.27502e-05
 Reference value :  1.27503e-05
 Reference value :  1.27505e-05
 Reference value :  1.27515e-05
 Reference value :  1.27524e-05
 Reference value :  1.27538e-05
 Reference value :  1.27544e-05
 Reference value :  1.27556e-05
 Reference value :  1.27565e-05
 Reference value :  1.27613e-05
 Reference value :  1.27714e-05
 Reference value :  1.28103e-05
 Reference value :  1.28423e-05
 Reference value :  1.29057e-05
 Reference value :  1.29282e-05
 Reference value :  1.29750e-05
 Reference value :  1.30000e-05
 Reference value :  1.30001e-05
 Reference value :  1.30002e-05
 Reference value :  1.30003e-05
 Reference value :  1.30009e-05
 Reference value :  1.30020e-05
 Reference value :  1.30029e-05
 Reference value :  1.30041e-05
 Reference value :  1.30056e-05
 Reference value :  1.30065e-05
 Reference value :  1.30074e-05
 Reference value :  1.30093e-05
 Reference value :  1.30113e-05
 Reference value :  1.30255e-05
 Reference value :  1.31038e-05
 Reference value :  1.32501e-05
 Reference value :  1.32502e-05
 Reference value :  1.32502e-05
 Reference value :  1.32504e-05
 Reference value :  1.32507e-05
 Reference value :  1.32515e-05
 Reference value :  1.32519e-05
 Reference value :  1.32531e-05
 Reference value :  1.32544e-05
 Reference value :  1.32564e-05
 Reference value :  1.32581e-05
 Reference value :  1.32602e-05
 Reference value :  1.32640e-05
 Reference value :  1.32809e-05
 Reference value :  1.33515e-05
 Reference value :  1.35000e-05
 Reference value :  1.35001e-05
 Reference value :  1.35002e-05
 Reference value :  1.35009e-05
 Reference value :  1.35024e-05
 Reference value :  1.35035e-05
 Reference value :  1.35046e-05
 Reference value :  1.35065e-05
 Reference value :  1.35097e-05
 Reference value :  1.35117e-05
 Reference value :  1.35137e-05
 Reference value :  1.35155e-05
 Reference value :  1.35174e-05
 Reference value :  1.35196e-05
 Reference value :  1.35232e-05
 Reference value :  1.35247e-05
 Reference value :  1.35295e-05
 Reference value :  1.35377e-05
 Reference value :  1.35489e-05
 Reference value :  1.36169e-05
 Reference value :  1.37501e-05
 Reference value :  1.37502e-05
 Reference value :  1.37502e-05
 Reference value :  1.37503e-05
 Reference value :  1.37505e-05
 Reference value :  1.37510e-05
 Reference value :  1.37519e-05
 Reference value :  1.37538e-05
 Reference value :  1.37543e-05
 Reference value :  1.37555e-05
 Reference value :  1.37563e-05
 Reference value :  1.37588e-05
 Reference value :  1.37699e-05
 Reference value :  1.38011e-05
 Reference value :  1.39200e-05
 Reference value :  1.40000e-05
 Reference value :  1.40001e-05
 Reference value :  1.40001e-05
 Reference value :  1.40002e-05
 Reference value :  1.40006e-05
 Reference value :  1.40015e-05
 Reference value :  1.40024e-05
 Reference value :  1.40035e-05
 Reference value :  1.40049e-05
 Reference value :  1.40064e-05
 Reference value :  1.40083e-05
 Reference value :  1.40113e-05
 Reference value :  1.40190e-05
 Reference value :  1.40727e-05
 Reference value :  1.42501e-05
 Reference value :  1.42502e-05
 Reference value :  1.42503e-05
 Reference value :  1.42505e-05
 Reference value :  1.42510e-05
 Reference value :  1.42519e-05
 Reference value :  1.42531e-05
 Reference value :  1.42544e-05
 Reference value :  1.42557e-05
 Reference value :  1.42564e-05
 Reference value :  1.42589e-05
 Reference value :  1.42707e-05
 Reference value :  1.43502e-05
 Reference value :  1.45000e-05
 Reference value :  1.45001e-05
 Reference value :  1.45001e-05
 Reference value :  1.45003e-05
 Reference value :  1.45009e-05
 Reference value :  1.45020e-05
 Reference value :  1.45024e-05
 Reference value :  1.45035e-05
 Reference value :  1.45047e-05
 Reference value :  1.45066e-05
 Reference value :  1.45105e-05
 Reference value :  1.45119e-05
 Reference value :  1.45143e-05
 Reference value :  1.45164e-05
 Reference value :  1.45187e-05
 Reference value :  1.45219e-05
 Reference value :  1.45341e-05
 Reference value :  1.45576e-05
 Reference value :  1.45834e-05
 Reference value :  1.46098e-05
 Reference value :  1.47241e-05
 Reference value :  1.47501e-05
 Reference value :  1.47502e-05
 Reference value :  1.47502e-05
 Reference value :  1.47504e-05
 Reference value :  1.47510e-05
 Reference value :  1.47519e-05
 Reference value :  1.47538e-05
 Reference value :  1.47550e-05
 Reference value :  1.47564e-05
 Reference value :  1.47644e-05
 Reference value :  1.48440e-05
 Reference value :  1.50000e-05
 Reference value :  1.50001e-05
 Reference value :  1.50002e-05
 Reference value :  1.50006e-05
 Reference value :  1.50015e-05
 Reference value :  1.50024e-05
 Reference value :  1.50035e-05
 Reference value :  1.50049e-05
 Reference value :  1.50064e-05
 Reference value :  1.50083e-05
 Reference value :  1.50102e-05
 Reference value :  1.50125e-05
 Reference value :  1.50426e-05
 Reference value :  1.52501e-05
 Reference value :  1.52502e-05
 Reference value :  1.52503e-05
 Reference value :  1.52505e-05
 Reference value :  1.52515e-05
 Reference value :  1.52524e-05
 Reference value :  1.52544e-05
 Reference value :  1.52557e-05
 Reference value :  1.52572e-05
 Reference value :  1.52645e-05
 Reference value :  1.53054e-05
 Reference value :  1.55000e-05
 Reference value :  1.55011e-05
 Reference value :  1.55044e-05
 Reference value :  1.55055e-05
 Reference value :  1.55064e-05
 Reference value :  1.55082e-05
 Reference value :  1.55107e-05
 Reference value :  1.55120e-05
 Reference value :  1.55143e-05
 Reference value :  1.55164e-05
 Reference value :  1.55174e-05
 Reference value :  1.55197e-05
 Reference value :  1.55228e-05
 Reference value :  1.55340e-05
 Reference value :  1.55769e-05
 Reference value :  1.56515e-05
 Reference value :  1.57441e-05
 Reference value :  1.57501e-05
 Reference value :  1.57502e-05
 Reference value :  1.57503e-05
 Reference value :  1.57505e-05
 Reference value :  1.57509e-05
 Reference value :  1.57515e-05
 Reference value :  1.57524e-05
 Reference value :  1.57537e-05
 Reference value :  1.57543e-05
 Reference value :  1.57555e-05
 Reference value :  1.57563e-05
 Reference value :  1.57571e-05
 Reference value :  1.57641e-05
 Reference value :  1.57961e-05
 Reference value :  1.59694e-05
 Reference value :  1.60000e-05
 Reference value :  1.60001e-05
 Reference value :  1.60002e-05
 Reference value :  1.60009e-05
 Reference value :  1.60024e-05
 Reference value :  1.60035e-05
 Reference value :  1.60049e-05
 Reference value :  1.60064e-05
 Reference value :  1.60083e-05
 Reference value :  1.60102e-05
 Reference value :  1.60125e-05
 Reference value :  1.60268e-05
 Reference value :  1.61311e-05
 Reference value :  1.62501e-05
 Reference value :  1.62502e-05
 Reference value :  1.62503e-05
 Reference value :  1.62505e-05
 Reference value :  1.62515e-05
 Reference value :  1.62524e-05
 Reference value :  1.62538e-05
 Reference value :  1.62550e-05
 Reference value :  1.62564e-05
 Reference value :  1.62612e-05
 Reference value :  1.63057e-05
 Reference value :  1.65000e-05
 Reference value :  1.65001e-05
 Reference value :  1.65001e-05
 Reference value :  1.65003e-05
 Reference value :  1.65009e-05
 Reference value :  1.65020e-05
 Reference value :  1.65024e-05
 Reference value :  1.65035e-05
 Reference value :  1.65041e-05
 Reference value :  1.65047e-05
 Reference value :  1.65059e-05
 Reference value :  1.65074e-05
 Reference value :  1.65081e-05
 Reference value :  1.65100e-05
 Reference value :  1.65174e-05
 Reference value :  1.65759e-05
 Reference value :  1.67501e-05
 Reference value :  1.67502e-05
 Reference value :  1.67502e-05
 Reference value :  1.67503e-05
 Reference value :  1.67506e-05
 Reference value :  1.67516e-05
 Reference value :  1.67526e-05
 Reference value :  1.67540e-05
 Reference value :  1.67560e-05
 Reference value :  1.67585e-05
 Reference value :  1.67680e-05
 Reference value :  1.67967e-05
 Reference value :  1.69117e-05
 Reference value :  1.70015e-05
 Reference value :  1.70045e-05
 Reference value :  1.70060e-05
 Reference value :  1.70093e-05
 Reference value :  1.70133e-05
 Reference value :  1.70205e-05
 Reference value :  1.70253e-05
 Reference value :  1.70287e-05
 Reference value :  1.70314e-05
 Reference value :  1.70338e-05
 Reference value :  1.70357e-05
 Reference value :  1.70372e-05
 Reference value :  1.70386e-05
 Reference value :  1.70419e-05
 Reference value :  1.70472e-05
 Reference value :  1.70541e-05
 Reference value :  1.70780e-05
 Reference value :  1.71650e-05
 Reference value :  1.72501e-05
 Reference value :  1.72502e-05
 Reference value :  1.72502e-05
 Reference value :  1.72504e-05
 Reference value :  1.72513e-05
 Reference value :  1.72527e-05
 Reference value :  1.72539e-05
 Reference value :  1.72559e-05
 Reference value :  1.72598e-05
 Reference value :  1.72746e-05
 Reference value :  1.73221e-05
 Reference value :  1.75000e-05
 Reference value :  1.75000e-05
 Reference value :  1.75001e-05
 Reference value :  1.75002e-05
 Reference value :  1.75005e-05
 Reference value :  1.75013e-05
 Reference value :  1.75023e-05
 Reference value :  1.75033e-05
 Reference value :  1.75055e-05
 Reference value :  1.75076e-05
 Reference value :  1.75099e-05
 Reference value :  1.75124e-05
 Reference value :  1.75137e-05
 Reference value :  1.75172e-05
 Reference value :  1.75273e-05
 Reference value :  1.75700e-05
 Reference value :  1.77501e-05
 Reference value :  1.77502e-05
 Reference value :  1.77502e-05
 Reference value :  1.77503e-05
 Reference value :  1.77508e-05
 Reference value :  1.77517e-05
 Reference value :  1.77527e-05
 Reference value :  1.77540e-05
 Reference value :  1.77553e-05
 Reference value :  1.77569e-05
 Reference value :  1.77627e-05
 Reference value :  1.77927e-05
 Reference value :  1.80000e-05
 Reference value :  1.80021e-05
 Reference value :  1.80062e-05
 Reference value :  1.80084e-05
 Reference value :  1.80121e-05
 Reference value :  1.80134e-05
 Reference value :  1.80159e-05
 Reference value :  1.80173e-05
 Reference value :  1.80224e-05
 Reference value :  1.80389e-05
 Reference value :  1.80776e-05
 Reference value :  1.81002e-05
 Reference value :  1.81215e-05
 Reference value :  1.81343e-05
 Reference value :  1.81497e-05
 Reference value :  1.81658e-05
 Reference value :  1.81888e-05
 Reference value :  1.82501e-05
 Reference value :  1.82501e-05
 Reference value :  1.82502e-05
 Reference value :  1.82502e-05
 Reference value :  1.82503e-05
 Reference value :  1.82506e-05
 Reference value :  1.82513e-05
 Reference value :  1.82521e-05
 Reference value :  1.82526e-05
 Reference value :  1.82536e-05
 Reference value :  1.82546e-05
 Reference value :  1.82559e-05
 Reference value :  1.82600e-05
 Reference value :  1.82752e-05
 Reference value :  1.83904e-05
 Reference value :  1.85000e-05
 Reference value :  1.85001e-05
 Reference value :  1.85002e-05
 Reference value :  1.85005e-05
 Reference value :  1.85013e-05
 Reference value :  1.85022e-05
 Reference value :  1.85032e-05
 Reference value :  1.85044e-05
 Reference value :  1.85052e-05
 Reference value :  1.85067e-05
 Reference value :  1.85083e-05
 Reference value :  1.85103e-05
 Reference value :  1.85176e-05
 Reference value :  1.85700e-05
 Reference value :  1.87501e-05
 Reference value :  1.87501e-05
 Reference value :  1.87502e-05
 Reference value :  1.87502e-05
 Reference value :  1.87503e-05
 Reference value :  1.87506e-05
 Reference value :  1.87517e-05
 Reference value :  1.87535e-05
 Reference value :  1.87546e-05
 Reference value :  1.87560e-05
 Reference value :  1.87576e-05
 Reference value :  1.87617e-05
 Reference value :  1.87801e-05
 Reference value :  1.88532e-05
 Reference value :  1.90000e-05
 Reference value :  1.90001e-05
 Reference value :  1.90002e-05
 Reference value :  1.90009e-05
 Reference value :  1.90023e-05
 Reference value :  1.90033e-05
 Reference value :  1.90046e-05
 Reference value :  1.90058e-05
 Reference value :  1.90083e-05
 Reference value :  1.90105e-05
 Reference value :  1.90115e-05
 Reference value :  1.90135e-05
 Reference value :  1.90153e-05
 Reference value :  1.90184e-05
 Reference value :  1.90234e-05
 Reference value :  1.90463e-05
 Reference value :  1.90665e-05
 Reference value :  1.91112e-05
 Reference value :  1.91246e-05
 Reference value :  1.91512e-05
 Reference value :  1.92280e-05
 Reference value :  1.92501e-05
 Reference value :  1.92502e-05
 Reference value :  1.92503e-05
 Reference value :  1.92508e-05
 Reference value :  1.92517e-05
 Reference value :  1.92535e-05
 Reference value :  1.92540e-05
 Reference value :  1.92553e-05
 Reference value :  1.92568e-05
 Reference value :  1.92677e-05
 Reference value :  1.93901e-05
 Reference value :  1.95020e-05
 Reference value :  1.95081e-05
 Reference value :  1.95123e-05
 Reference value :  1.95162e-05
 Reference value :  1.95265e-05
 Reference value :  1.95428e-05
 Reference value :  1.95828e-05
 Reference value :  1.97501e-05
 Reference value :  1.97501e-05
 Reference value :  1.97502e-05
 Reference value :  1.97502e-05
 Reference value :  1.97503e-05
 Reference value :  1.97506e-05
 Reference value :  1.97513e-05
 Reference value :  1.97521e-05
 Reference value :  1.97527e-05
 Reference value :  1.97536e-05
 Reference value :  1.97547e-05
 Reference value :  1.97560e-05
 Reference value :  1.97601e-05
 Reference value :  1.97933e-05
 Reference value :  2.00000e-05
 Reference value :  2.00001e-05
 Reference value :  2.00002e-05
 Reference value :  2.00005e-05
 Reference value :  2.00018e-05
 Reference value :  2.00033e-05
 Reference value :  2.00045e-05
 Reference value :  2.00059e-05
 Reference value :  2.00085e-05
 Reference value :  2.00101e-05
 Reference value :  2.00128e-05
 Reference value :  2.00138e-05
 Reference value :  2.00158e-05
 Reference value :  2.00179e-05
 Reference value :  2.00224e-05
 Reference value :  2.00334e-05
 Reference value :  2.00419e-05
 Reference value :  2.00487e-05
 Reference value :  2.00559e-05
 Reference value :  2.00677e-05
 Reference value :  2.01075e-05
 Reference value :  2.01806e-05
 Reference value :  2.02501e-05
 Reference value :  2.02501e-05
 Reference value :  2.02502e-05
 Reference value :  2.02503e-05
 Reference value :  2.02504e-05
 Reference value :  2.02513e-05
 Reference value :  2.02521e-05
 Reference value :  2.02535e-05
 Reference value :  2.02540e-05
 Reference value :  2.02551e-05
 Reference value :  2.02559e-05
 Reference value :  2.02598e-05
 Reference value :  2.02746e-05
 Reference value :  2.03855e-05
 Reference value :  2.05021e-05
 Reference value :  2.05084e-05
 Reference value :  2.05126e-05
 Reference value :  2.05174e-05
 Reference value :  2.05309e-05
 Reference value :  2.05753e-05
 Reference value :  2.07501e-05
 Reference value :  2.07502e-05
 Reference value :  2.07503e-05
 Reference value :  2.07506e-05
 Reference value :  2.07517e-05
 Reference value :  2.07527e-05
 Reference value :  2.07536e-05
 Reference value :  2.07547e-05
 Reference value :  2.07560e-05
 Reference value :  2.07586e-05
 Reference value :  2.07633e-05
 Reference value :  2.07805e-05
 Reference value :  2.09322e-05
 Reference value :  2.10000e-05
 Reference value :  2.10001e-05
 Reference value :  2.10002e-05
 Reference value :  2.10009e-05
 Reference value :  2.10023e-05
 Reference value :  2.10033e-05
 Reference value :  2.10052e-05
 Reference value :  2.10073e-05
 Reference value :  2.10105e-05
 Reference value :  2.10116e-05
 Reference value :  2.10135e-05
 Reference value :  2.10153e-05
 Reference value :  2.10173e-05
 Reference value :  2.10197e-05
 Reference value :  2.10276e-05
 Reference value :  2.10434e-05
 Reference value :  2.10561e-05
 Reference value :  2.10643e-05
 Reference value :  2.10910e-05
 Reference value :  2.11553e-05
 Reference value :  2.12501e-05
 Reference value :  2.12502e-05
 Reference value :  2.12502e-05
 Reference value :  2.12503e-05
 Reference value :  2.12505e-05
 Reference value :  2.12510e-05
 Reference value :  2.12519e-05
 Reference value :  2.12531e-05
 Reference value :  2.12544e-05
 Reference value :  2.12556e-05
 Reference value :  2.12574e-05
 Reference value :  2.12650e-05
 Reference value :  2.12853e-05
 Reference value :  2.13455e-05
 Reference value :  2.13760e-05
 Reference value :  2.13992e-05
 Reference value :  2.14576e-05
 Reference value :  2.15000e-05
 Reference value :  2.15001e-05
 Reference value :  2.15001e-05
 Reference value :  2.15003e-05
 Reference value :  2.15009e-05
 Reference value :  2.15020e-05
 Reference value :  2.15029e-05
 Reference value :  2.15041e-05
 Reference value :  2.15056e-05
 Reference value :  2.15065e-05
 Reference value :  2.15074e-05
 Reference value :  2.15093e-05
 Reference value :  2.15114e-05
 Reference value :  2.15187e-05
 Reference value :  2.15589e-05
 Reference value :  2.17501e-05
 Reference value :  2.17501e-05
 Reference value :  2.17502e-05
 Reference value :  2.17503e-05
 Reference value :  2.17505e-05
 Reference value :  2.17510e-05
 Reference value :  2.17519e-05
 Reference value :  2.17531e-05
 Reference value :  2.17544e-05
 Reference value :  2.17557e-05
 Reference value :  2.17564e-05
 Reference value :  2.17581e-05
 Reference value :  2.17619e-05
 Reference value :  2.17728e-05
 Reference value :  2.18162e-05
 Reference value :  2.20000e-05
 Reference value :  2.20013e-05
 Reference value :  2.20039e-05
 Reference value :  2.20053e-05
 Reference value :  2.20078e-05
 Reference value :  2.20103e-05
 Reference value :  2.20125e-05
 Reference value :  2.20147e-05
 Reference value :  2.20167e-05
 Reference value :  2.20190e-05
 Reference value :  2.20243e-05
 Reference value :  2.20272e-05
 Reference value :  2.20306e-05
 Reference value :  2.20394e-05
 Reference value :  2.20716e-05
 Reference value :  2.21853e-05
 Reference value :  2.22501e-05
 Reference value :  2.22502e-05
 Reference value :  2.22502e-05
 Reference value :  2.22503e-05
 Reference value :  2.22505e-05
 Reference value :  2.22509e-05
 Reference value :  2.22511e-05
 Reference value :  2.22515e-05
 Reference value :  2.22524e-05
 Reference value :  2.22543e-05
 Reference value :  2.22563e-05
 Reference value :  2.22608e-05
 Reference value :  2.22797e-05
 Reference value :  2.23789e-05
 Reference value :  2.25000e-05
 Reference value :  2.25001e-05
 Reference value :  2.25001e-05
 Reference value :  2.25002e-05
 Reference value :  2.25006e-05
 Reference value :  2.25015e-05
 Reference value :  2.25024e-05
 Reference value :  2.25035e-05
 Reference value :  2.25041e-05
 Reference value :  2.25057e-05
 Reference value :  2.25064e-05
 Reference value :  2.25083e-05
 Reference value :  2.25102e-05
 Reference value :  2.25124e-05
 Reference value :  2.25426e-05
 Reference value :  2.27501e-05
 Reference value :  2.27502e-05
 Reference value :  2.27503e-05
 Reference value :  2.27505e-05
 Reference value :  2.27515e-05
 Reference value :  2.27524e-05
 Reference value :  2.27538e-05
 Reference value :  2.27544e-05
 Reference value :  2.27557e-05
 Reference value :  2.27573e-05
 Reference value :  2.27645e-05
 Reference value :  2.28053e-05
 Reference value :  2.30000e-05
 Reference value :  2.30011e-05
 Reference value :  2.30044e-05
 Reference value :  2.30064e-05
 Reference value :  2.30082e-05
 Reference value :  2.30107e-05
 Reference value :  2.30120e-05
 Reference value :  2.30143e-05
 Reference value :  2.30164e-05
 Reference value :  2.30185e-05
 Reference value :  2.30230e-05
 Reference value :  2.30378e-05
 Reference value :  2.30623e-05
 Reference value :  2.30977e-05
 Reference value :  2.31238e-05
 Reference value :  2.32297e-05
 Reference value :  2.32501e-05
 Reference value :  2.32502e-05
 Reference value :  2.32503e-05
 Reference value :  2.32505e-05
 Reference value :  2.32509e-05
 Reference value :  2.32515e-05
 Reference value :  2.32524e-05
 Reference value :  2.32538e-05
 Reference value :  2.32543e-05
 Reference value :  2.32555e-05
 Reference value :  2.32571e-05
 Reference value :  2.32640e-05
 Reference value :  2.32959e-05
 Reference value :  2.34691e-05
 Reference value :  2.35000e-05
 Reference value :  2.35001e-05
 Reference value :  2.35002e-05
 Reference value :  2.35006e-05
 Reference value :  2.35015e-05
 Reference value :  2.35024e-05
 Reference value :  2.35035e-05
 Reference value :  2.35049e-05
 Reference value :  2.35064e-05
 Reference value :  2.35083e-05
 Reference value :  2.35102e-05
 Reference value :  2.35125e-05
 Reference value :  2.35268e-05
 Reference value :  2.36311e-05
 Reference value :  2.37501e-05
 Reference value :  2.37502e-05
 Reference value :  2.37503e-05
 Reference value :  2.37504e-05
 Reference value :  2.37510e-05
 Reference value :  2.37524e-05
 Reference value :  2.37544e-05
 Reference value :  2.37564e-05
 Reference value :  2.37646e-05
 Reference value :  2.38511e-05
 Reference value :  2.40000e-05
 Reference value :  2.40001e-05
 Reference value :  2.40002e-05
 Reference value :  2.40003e-05
 Reference value :  2.40009e-05
 Reference value :  2.40020e-05
 Reference value :  2.40030e-05
 Reference value :  2.40035e-05
 Reference value :  2.40047e-05
 Reference value :  2.40059e-05
 Reference value :  2.40087e-05
 Reference value :  2.40119e-05
 Reference value :  2.40144e-05
 Reference value :  2.40164e-05
 Reference value :  2.40188e-05
 Reference value :  2.40285e-05
 Reference value :  2.40579e-05
 Reference value :  2.41208e-05
 Reference value :  2.41923e-05
 Reference value :  2.42501e-05
 Reference value :  2.42502e-05
 Reference value :  2.42503e-05
 Reference value :  2.42504e-05
 Reference value :  2.42507e-05
 Reference value :  2.42514e-05
 Reference value :  2.42524e-05
 Reference value :  2.42538e-05
 Reference value :  2.42543e-05
 Reference value :  2.42556e-05
 Reference value :  2.42572e-05
 Reference value :  2.42643e-05
 Reference value :  2.43019e-05
 Reference value :  2.45000e-05
 Reference value :  2.45001e-05
 Reference value :  2.45001e-05
 Reference value :  2.45002e-05
 Reference value :  2.45003e-05
 Reference value :  2.45009e-05
 Reference value :  2.45020e-05
 Reference value :  2.45024e-05
 Reference value :  2.45035e-05
 Reference value :  2.45049e-05
 Reference value :  2.45064e-05
 Reference value :  2.45083e-05
 Reference value :  2.45102e-05
 Reference value :  2.45124e-05
 Reference value :  2.45268e-05
 Reference value :  2.46322e-05
 Reference value :  2.47501e-05
 Reference value :  2.47502e-05
 Reference value :  2.47503e-05
 Reference value :  2.47505e-05
 Reference value :  2.47515e-05
 Reference value :  2.47524e-05
 Reference value :  2.47538e-05
 Reference value :  2.47550e-05
 Reference value :  2.47564e-05
 Reference value :  2.47612e-05
 Reference value :  2.47829e-05
 Reference value :  2.50000e-05
 Reference value :  2.50001e-05
 Reference value :  2.50001e-05
 Reference value :  2.50003e-05
 Reference value :  2.50015e-05
 Reference value :  2.50024e-05
 Reference value :  2.50035e-05
 Reference value :  2.50047e-05
 Reference value :  2.50059e-05
 Reference value :  2.50074e-05
 Reference value :  2.50090e-05
 Reference value :  2.50100e-05
 Reference value :  2.50257e-05
 Reference value :  2.51428e-05
 Reference value :  2.52501e-05
 Reference value :  2.52502e-05
 Reference value :  2.52503e-05
 Reference value :  2.52506e-05
 Reference value :  2.52516e-05
 Reference value :  2.52526e-05
 Reference value :  2.52540e-05
 Reference value :  2.52560e-05
 Reference value :  2.52585e-05
 Reference value :  2.52775e-05
 Reference value :  2.55000e-05
 Reference value :  2.55015e-05
 Reference value :  2.55045e-05
 Reference value :  2.55060e-05
 Reference value :  2.55111e-05
 Reference value :  2.55205e-05
 Reference value :  2.55253e-05
 Reference value :  2.55287e-05
 Reference value :  2.55314e-05
 Reference value :  2.55357e-05
 Reference value :  2.55386e-05
 Reference value :  2.55440e-05
 Reference value :  2.55541e-05
 Reference value :  2.55780e-05
 Reference value :  2.56650e-05
 Reference value :  2.57501e-05
 Reference value :  2.57502e-05
 Reference value :  2.57504e-05
 Reference value :  2.57513e-05
 Reference value :  2.57522e-05
 Reference value :  2.57535e-05
 Reference value :  2.57539e-05
 Reference value :  2.57559e-05
 Reference value :  2.57599e-05
 Reference value :  2.57747e-05
 Reference value :  2.58856e-05
 Reference value :  2.60000e-05
 Reference value :  2.60001e-05
 Reference value :  2.60002e-05
 Reference value :  2.60005e-05
 Reference value :  2.60013e-05
 Reference value :  2.60023e-05
 Reference value :  2.60033e-05
 Reference value :  2.60055e-05
 Reference value :  2.60075e-05
 Reference value :  2.60099e-05
 Reference value :  2.60124e-05
 Reference value :  2.60137e-05
 Reference value :  2.60191e-05
 Reference value :  2.60347e-05
 Reference value :  2.61119e-05
 Reference value :  2.62501e-05
 Reference value :  2.62502e-05
 Reference value :  2.62504e-05
 Reference value :  2.62513e-05
 Reference value :  2.62521e-05
 Reference value :  2.62535e-05
 Reference value :  2.62546e-05
 Reference value :  2.62569e-05
 Reference value :  2.62627e-05
 Reference value :  2.62922e-05
 Reference value :  2.65021e-05
 Reference value :  2.65063e-05
 Reference value :  2.65084e-05
 Reference value :  2.65122e-05
 Reference value :  2.65148e-05
 Reference value :  2.65189e-05
 Reference value :  2.65255e-05
 Reference value :  2.65720e-05
 Reference value :  2.66176e-05
 Reference value :  2.66455e-05
 Reference value :  2.66661e-05
 Reference value :  2.66955e-05
 Reference value :  2.67501e-05
 Reference value :  2.67502e-05
 Reference value :  2.67502e-05
 Reference value :  2.67504e-05
 Reference value :  2.67513e-05
 Reference value :  2.67527e-05
 Reference value :  2.67536e-05
 Reference value :  2.67546e-05
 Reference value :  2.67559e-05
 Reference value :  2.67583e-05
 Reference value :  2.67629e-05
 Reference value :  2.67923e-05
 Reference value :  2.70000e-05
 Reference value :  2.70001e-05
 Reference value :  2.70002e-05
 Reference value :  2.70003e-05
 Reference value :  2.70009e-05
 Reference value :  2.70017e-05
 Reference value :  2.70032e-05
 Reference value :  2.70044e-05
 Reference value :  2.70052e-05
 Reference value :  2.70067e-05
 Reference value :  2.70083e-05
 Reference value :  2.70115e-05
 Reference value :  2.70413e-05
 Reference value :  2.72501e-05
 Reference value :  2.72502e-05
 Reference value :  2.72502e-05
 Reference value :  2.72504e-05
 Reference value :  2.72513e-05
 Reference value :  2.72521e-05
 Reference value :  2.72535e-05
 Reference value :  2.72540e-05
 Reference value :  2.72553e-05
 Reference value :  2.72568e-05
 Reference value :  2.72587e-05
 Reference value :  2.72616e-05
 Reference value :  2.72667e-05
 Reference value :  2.72801e-05
 Reference value :  2.73532e-05
 Reference value :  2.75000e-05
 Reference value :  2.75001e-05
 Reference value :  2.75001e-05
 Reference value :  2.75002e-05
 Reference value :  2.75005e-05
 Reference value :  2.75013e-05
 Reference value :  2.75023e-05
 Reference value :  2.75028e-05
 Reference value :  2.75033e-05
 Reference value :  2.75046e-05
 Reference value :  2.75058e-05
 Reference value :  2.75073e-05
 Reference value :  2.75094e-05
 Reference value :  2.75115e-05
 Reference value :  2.75127e-05
 Reference value :  2.75135e-05
 Reference value :  2.75153e-05
 Reference value :  2.75173e-05
 Reference value :  2.75196e-05
 Reference value :  2.75274e-05
 Reference value :  2.75666e-05
 Reference value :  2.76111e-05
 Reference value :  2.76244e-05
 Reference value :  2.76509e-05
 Reference value :  2.77011e-05
 Reference value :  2.77501e-05
 Reference value :  2.77502e-05
 Reference value :  2.77503e-05
 Reference value :  2.77506e-05
 Reference value :  2.77517e-05
 Reference value :  2.77535e-05
 Reference value :  2.77546e-05
 Reference value :  2.77560e-05
 Reference value :  2.77602e-05
 Reference value :  2.77767e-05
 Reference value :  2.80000e-05
 Reference value :  2.80020e-05
 Reference value :  2.80060e-05
 Reference value :  2.80081e-05
 Reference value :  2.80142e-05
 Reference value :  2.80189e-05
 Reference value :  2.80330e-05
 Reference value :  2.81223e-05
 Reference value :  2.82501e-05
 Reference value :  2.82502e-05
 Reference value :  2.82503e-05
 Reference value :  2.82506e-05
 Reference value :  2.82517e-05
 Reference value :  2.82527e-05
 Reference value :  2.82536e-05
 Reference value :  2.82547e-05
 Reference value :  2.82560e-05
 Reference value :  2.82601e-05
 Reference value :  2.82933e-05
 Reference value :  2.85000e-05
 Reference value :  2.85001e-05
 Reference value :  2.85002e-05
 Reference value :  2.85005e-05
 Reference value :  2.85013e-05
 Reference value :  2.85023e-05
 Reference value :  2.85033e-05
 Reference value :  2.85045e-05
 Reference value :  2.85059e-05
 Reference value :  2.85085e-05
 Reference value :  2.85101e-05
 Reference value :  2.85128e-05
 Reference value :  2.85147e-05
 Reference value :  2.85168e-05
 Reference value :  2.85207e-05
 Reference value :  2.85253e-05
 Reference value :  2.85334e-05
 Reference value :  2.85419e-05
 Reference value :  2.85487e-05
 Reference value :  2.85559e-05
 Reference value :  2.85677e-05
 Reference value :  2.86075e-05
 Reference value :  2.86806e-05
 Reference value :  2.87501e-05
 Reference value :  2.87502e-05
 Reference value :  2.87503e-05
 Reference value :  2.87506e-05
 Reference value :  2.87513e-05
 Reference value :  2.87521e-05
 Reference value :  2.87535e-05
 Reference value :  2.87545e-05
 Reference value :  2.87559e-05
 Reference value :  2.87598e-05
 Reference value :  2.87746e-05
 Reference value :  2.88855e-05
 Reference value :  2.90021e-05
 Reference value :  2.90062e-05
 Reference value :  2.90084e-05
 Reference value :  2.90126e-05
 Reference value :  2.90174e-05
 Reference value :  2.90249e-05
 Reference value :  2.90398e-05
 Reference value :  2.90753e-05
 Reference value :  2.91635e-05
 Reference value :  2.92501e-05
 Reference value :  2.92502e-05
 Reference value :  2.92502e-05
 Reference value :  2.92503e-05
 Reference value :  2.92504e-05
 Reference value :  2.92508e-05
 Reference value :  2.92517e-05
 Reference value :  2.92527e-05
 Reference value :  2.92536e-05
 Reference value :  2.92542e-05
 Reference value :  2.92547e-05
 Reference value :  2.92560e-05
 Reference value :  2.92576e-05
 Reference value :  2.92597e-05
 Reference value :  2.92665e-05
 Reference value :  2.92961e-05
 Reference value :  2.94322e-05
 Reference value :  2.95000e-05
 Reference value :  2.95001e-05
 Reference value :  2.95002e-05
 Reference value :  2.95009e-05
 Reference value :  2.95023e-05
 Reference value :  2.95033e-05
 Reference value :  2.95046e-05
 Reference value :  2.95058e-05
 Reference value :  2.95083e-05
 Reference value :  2.95105e-05
 Reference value :  2.95116e-05
 Reference value :  2.95135e-05
 Reference value :  2.95153e-05
 Reference value :  2.95173e-05
 Reference value :  2.95194e-05
 Reference value :  2.95266e-05
 Reference value :  2.95391e-05
 Reference value :  2.95474e-05
 Reference value :  2.95539e-05
 Reference value :  2.95572e-05
 Reference value :  2.95639e-05
 Reference value :  2.95822e-05
 Reference value :  2.96251e-05
 Reference value :  2.97501e-05
 Reference value :  2.97502e-05
 Reference value :  2.97502e-05
 Reference value :  2.97503e-05
 Reference value :  2.97507e-05
 Reference value :  2.97515e-05
 Reference value :  2.97524e-05
 Reference value :  2.97538e-05
 Reference value :  2.97550e-05
 Reference value :  2.97565e-05
 Reference value :  2.97613e-05
 Reference value :  2.97845e-05
 Reference value :  2.98426e-05
 Reference value :  2.98717e-05
 Reference value :  2.99057e-05
 Reference value :  2.99279e-05
 Reference value :  2.99512e-05
 Reference value :  2.99996e-05
 Reference value :  3.00000e-05
 Reference value :  3.00001e-05
 Reference value :  3.00002e-05
 Reference value :  3.00003e-05
 Reference value :  3.00009e-05
 Reference value :  3.00020e-05
 Reference value :  3.00029e-05
 Reference value :  3.00041e-05
 Reference value :  3.00056e-05
 Reference value :  3.00074e-05
 Reference value :  3.00093e-05
 Reference value :  3.00113e-05
 Reference value :  3.00187e-05
 Reference value :  3.01037e-05
 Reference value :  3.02501e-05
 Reference value :  3.02502e-05
 Reference value :  3.02503e-05
 Reference value :  3.02505e-05
 Reference value :  3.02519e-05
 Reference value :  3.02531e-05
 Reference value :  3.02544e-05
 Reference value :  3.02557e-05
 Reference value :  3.02564e-05
 Reference value :  3.02581e-05
 Reference value :  3.02602e-05
 Reference value :  3.02640e-05
 Reference value :  3.02948e-05
 Reference value :  3.04213e-05
 Reference value :  3.05013e-05
 Reference value :  3.05039e-05
 Reference value :  3.05052e-05
 Reference value :  3.05077e-05
 Reference value :  3.05112e-05
 Reference value :  3.05134e-05
 Reference value :  3.05142e-05
 Reference value :  3.05160e-05
 Reference value :  3.05178e-05
 Reference value :  3.05221e-05
 Reference value :  3.05239e-05
 Reference value :  3.05268e-05
 Reference value :  3.05318e-05
 Reference value :  3.05439e-05
 Reference value :  3.05556e-05
 Reference value :  3.06755e-05
 Reference value :  3.07502e-05
 Reference value :  3.07503e-05
 Reference value :  3.07504e-05
 Reference value :  3.07509e-05
 Reference value :  3.07515e-05
 Reference value :  3.07524e-05
 Reference value :  3.07537e-05
 Reference value :  3.07549e-05
 Reference value :  3.07570e-05
 Reference value :  3.07693e-05
 Reference value :  3.08781e-05
 Reference value :  3.10000e-05
 Reference value :  3.10001e-05
 Reference value :  3.10003e-05
 Reference value :  3.10009e-05
 Reference value :  3.10020e-05
 Reference value :  3.10024e-05
 Reference value :  3.10035e-05
 Reference value :  3.10049e-05
 Reference value :  3.10064e-05
 Reference value :  3.10083e-05
 Reference value :  3.10113e-05
 Reference value :  3.10269e-05
 Reference value :  3.11329e-05
 Reference value :  3.12501e-05
 Reference value :  3.12502e-05
 Reference value :  3.12504e-05
 Reference value :  3.12510e-05
 Reference value :  3.12524e-05
 Reference value :  3.12538e-05
 Reference value :  3.12544e-05
 Reference value :  3.12557e-05
 Reference value :  3.12573e-05
 Reference value :  3.12645e-05
 Reference value :  3.13054e-05
 Reference value :  3.15000e-05
 Reference value :  3.15001e-05
 Reference value :  3.15001e-05
 Reference value :  3.15003e-05
 Reference value :  3.15009e-05
 Reference value :  3.15020e-05
 Reference value :  3.15024e-05
 Reference value :  3.15035e-05
 Reference value :  3.15047e-05
 Reference value :  3.15059e-05
 Reference value :  3.15087e-05
 Reference value :  3.15119e-05
 Reference value :  3.15144e-05
 Reference value :  3.15164e-05
 Reference value :  3.15201e-05
 Reference value :  3.15304e-05
 Reference value :  3.15528e-05
 Reference value :  3.15727e-05
 Reference value :  3.15988e-05
 Reference value :  3.16244e-05
 Reference value :  3.17324e-05
 Reference value :  3.17501e-05
 Reference value :  3.17502e-05
 Reference value :  3.17502e-05
 Reference value :  3.17503e-05
 Reference value :  3.17505e-05
 Reference value :  3.17510e-05
 Reference value :  3.17519e-05
 Reference value :  3.17531e-05
 Reference value :  3.17544e-05
 Reference value :  3.17556e-05
 Reference value :  3.17572e-05
 Reference value :  3.17644e-05
 Reference value :  3.18031e-05
 Reference value :  3.20000e-05
 Reference value :  3.20000e-05
 Reference value :  3.20001e-05
 Reference value :  3.20001e-05
 Reference value :  3.20002e-05
 Reference value :  3.20003e-05
 Reference value :  3.20009e-05
 Reference value :  3.20020e-05
 Reference value :  3.20024e-05
 Reference value :  3.20035e-05
 Reference value :  3.20049e-05
 Reference value :  3.20064e-05
 Reference value :  3.20083e-05
 Reference value :  3.20112e-05
 Reference value :  3.20189e-05
 Reference value :  3.20724e-05
 Reference value :  3.22501e-05
 Reference value :  3.22502e-05
 Reference value :  3.22503e-05
 Reference value :  3.22504e-05
 Reference value :  3.22510e-05
 Reference value :  3.22519e-05
 Reference value :  3.22531e-05
 Reference value :  3.22544e-05
 Reference value :  3.22564e-05
 Reference value :  3.22612e-05
 Reference value :  3.22829e-05
 Reference value :  3.24398e-05
 Reference value :  3.25000e-05
 Reference value :  3.25001e-05
 Reference value :  3.25002e-05
 Reference value :  3.25009e-05
 Reference value :  3.25020e-05
 Reference value :  3.25030e-05
 Reference value :  3.25035e-05
 Reference value :  3.25047e-05
 Reference value :  3.25059e-05
 Reference value :  3.25087e-05
 Reference value :  3.25119e-05
 Reference value :  3.25144e-05
 Reference value :  3.25164e-05
 Reference value :  3.25188e-05
 Reference value :  3.25250e-05
 Reference value :  3.25416e-05
 Reference value :  3.25766e-05
 Reference value :  3.26208e-05
 Reference value :  3.26923e-05
 Reference value :  3.27501e-05
 Reference value :  3.27501e-05
 Reference value :  3.27502e-05
 Reference value :  3.27502e-05
 Reference value :  3.27503e-05
 Reference value :  3.27505e-05
 Reference value :  3.27514e-05
 Reference value :  3.27524e-05
 Reference value :  3.27538e-05
 Reference value :  3.27543e-05
 Reference value :  3.27556e-05
 Reference value :  3.27572e-05
 Reference value :  3.27643e-05
 Reference value :  3.28019e-05
 Reference value :  3.29224e-05
 Reference value :  3.30000e-05
 Reference value :  3.30001e-05
 Reference value :  3.30002e-05
 Reference value :  3.30006e-05
 Reference value :  3.30015e-05
 Reference value :  3.30024e-05
 Reference value :  3.30035e-05
 Reference value :  3.30049e-05
 Reference value :  3.30064e-05
 Reference value :  3.30083e-05
 Reference value :  3.30102e-05
 Reference value :  3.30124e-05
 Reference value :  3.30268e-05
 Reference value :  3.30724e-05
 Reference value :  3.32501e-05
 Reference value :  3.32502e-05
 Reference value :  3.32502e-05
 Reference value :  3.32503e-05
 Reference value :  3.32504e-05
 Reference value :  3.32507e-05
 Reference value :  3.32515e-05
 Reference value :  3.32524e-05
 Reference value :  3.32538e-05
 Reference value :  3.32544e-05
 Reference value :  3.32557e-05
 Reference value :  3.32564e-05
 Reference value :  3.32612e-05
 Reference value :  3.32829e-05
 Reference value :  3.34398e-05
 Reference value :  3.35010e-05
 Reference value :  3.35041e-05
 Reference value :  3.35051e-05
 Reference value :  3.35060e-05
 Reference value :  3.35069e-05
 Reference value :  3.35078e-05
 Reference value :  3.35087e-05
 Reference value :  3.35096e-05
 Reference value :  3.35118e-05
 Reference value :  3.35181e-05
 Reference value :  3.35396e-05
 Reference value :  3.36154e-05
 Reference value :  3.37501e-05
 Reference value :  3.37502e-05
 Reference value :  3.37502e-05
 Reference value :  3.37504e-05
 Reference value :  3.37510e-05
 Reference value :  3.37523e-05
 Reference value :  3.37545e-05
 Reference value :  3.37575e-05
 Reference value :  3.37642e-05
 Reference value :  3.38084e-05
No. of Data Rows : 4743
ngspice-44 done
