
Note: Compatibility modes selected: hs a


Circuit: ** sch_path: /home/ece/cace/sar-adc-using-sky130-pdk/runs/run_2025-09-09_04-42-38/parameters/sampling_rate/run_14/sampling_rate.sch

option SCALE: Scale is set to 1e-06 for instance and model parameters
option SCALE: Scale is set to 1e-06 for instance and model parameters
option SCALE: Scale is set to 1e-06 for instance and model parameters
option SCALE: Scale is set to 1e-06 for instance and model parameters
Doing analysis at TEMP = 27.000000 and TNOM = 27.000000

Using KLU as Direct Linear Solver
Operating point simulation skipped by 'uic',
  now using transient initial conditions.
 Reference value :  1.00000e-12
 Reference value :  1.02772e-12
 Reference value :  1.08316e-12
 Reference value :  1.19404e-12
 Reference value :  1.33842e-12
 Reference value :  1.62719e-12
 Reference value :  2.20473e-12
 Reference value :  3.04036e-12
 Reference value :  3.94732e-12
 Reference value :  5.17058e-12
 Reference value :  6.92400e-12
 Reference value :  1.02687e-11
 Reference value :  1.42597e-11
 Reference value :  2.10015e-11
 Reference value :  2.78850e-11
 Reference value :  3.69162e-11
 Reference value :  4.84528e-11
 Reference value :  6.50186e-11
 Reference value :  8.66103e-11
 Reference value :  1.00000e-10
 Reference value :  1.01108e-10
 Reference value :  1.03325e-10
 Reference value :  1.07758e-10
 Reference value :  1.16625e-10
 Reference value :  1.34359e-10
 Reference value :  1.69826e-10
 Reference value :  2.40760e-10
 Reference value :  3.82629e-10
 Reference value :  5.40848e-10
 Reference value :  7.89972e-10
 Reference value :  1.12386e-09
 Reference value :  1.52165e-09
 Reference value :  2.13078e-09
 Reference value :  2.76988e-09
 Reference value :  3.78744e-09
 Reference value :  4.71495e-09
 Reference value :  5.57365e-09
 Reference value :  6.52956e-09
 Reference value :  7.55171e-09
 Reference value :  8.77295e-09
 Reference value :  9.71081e-09
 Reference value :  1.06098e-08
 Reference value :  1.15343e-08
 Reference value :  1.24507e-08
 Reference value :  1.38424e-08
 Reference value :  1.58074e-08
 Reference value :  1.90301e-08
 Reference value :  2.43115e-08
 Reference value :  2.97946e-08
 Reference value :  3.43713e-08
 Reference value :  3.91853e-08
 Reference value :  4.36225e-08
 Reference value :  4.81695e-08
 Reference value :  5.35843e-08
 Reference value :  6.08556e-08
 Reference value :  7.34719e-08
 Reference value :  9.26069e-08
 Reference value :  1.29652e-07
 Reference value :  1.99478e-07
 Reference value :  2.50100e-07
 Reference value :  2.50110e-07
 Reference value :  2.50130e-07
 Reference value :  2.50170e-07
 Reference value :  2.50200e-07
 Reference value :  2.50201e-07
 Reference value :  2.50202e-07
 Reference value :  2.50208e-07
 Reference value :  2.50216e-07
 Reference value :  2.50233e-07
 Reference value :  2.50266e-07
 Reference value :  2.50332e-07
 Reference value :  2.50438e-07
 Reference value :  2.50611e-07
 Reference value :  2.50808e-07
 Reference value :  2.51136e-07
 Reference value :  2.51583e-07
 Reference value :  2.52133e-07
 Reference value :  2.52731e-07
 Reference value :  2.53379e-07
 Reference value :  2.54229e-07
 Reference value :  2.55158e-07
 Reference value :  2.56089e-07
 Reference value :  2.56989e-07
 Reference value :  2.57972e-07
 Reference value :  2.58946e-07
 Reference value :  2.60499e-07
 Reference value :  2.62419e-07
 Reference value :  2.64909e-07
 Reference value :  2.73509e-07
 Reference value :  3.00570e-07
 Reference value :  3.29464e-07
 Reference value :  5.00000e-07
 Reference value :  5.00010e-07
 Reference value :  5.00030e-07
 Reference value :  5.00070e-07
 Reference value :  5.00100e-07
 Reference value :  5.00104e-07
 Reference value :  5.00113e-07
 Reference value :  5.00130e-07
 Reference value :  5.00165e-07
 Reference value :  5.00234e-07
 Reference value :  5.00372e-07
 Reference value :  5.00573e-07
 Reference value :  5.00954e-07
 Reference value :  5.01538e-07
 Reference value :  5.02096e-07
 Reference value :  5.02766e-07
 Reference value :  5.03533e-07
 Reference value :  5.04331e-07
 Reference value :  5.05155e-07
 Reference value :  5.05969e-07
 Reference value :  5.07062e-07
 Reference value :  5.08130e-07
 Reference value :  5.09940e-07
 Reference value :  5.12181e-07
 Reference value :  5.14397e-07
 Reference value :  5.16701e-07
 Reference value :  5.18870e-07
 Reference value :  5.21551e-07
 Reference value :  5.24224e-07
 Reference value :  5.29329e-07
 Reference value :  5.35742e-07
 Reference value :  5.46810e-07
 Reference value :  5.66366e-07
 Reference value :  5.96607e-07
 Reference value :  6.57090e-07
 Reference value :  7.50100e-07
 Reference value :  7.50110e-07
 Reference value :  7.50130e-07
 Reference value :  7.50170e-07
 Reference value :  7.50200e-07
 Reference value :  7.50201e-07
 Reference value :  7.50202e-07
 Reference value :  7.50205e-07
 Reference value :  7.50223e-07
 Reference value :  7.50247e-07
 Reference value :  7.50390e-07
 Reference value :  7.50959e-07
 Reference value :  7.51572e-07
 Reference value :  7.52191e-07
 Reference value :  7.52840e-07
 Reference value :  7.53541e-07
 Reference value :  7.54448e-07
 Reference value :  7.55180e-07
 Reference value :  7.56013e-07
 Reference value :  7.56742e-07
 Reference value :  7.57547e-07
 Reference value :  7.58563e-07
 Reference value :  7.59653e-07
 Reference value :  7.61835e-07
 Reference value :  7.64160e-07
 Reference value :  7.68223e-07
 Reference value :  7.72598e-07
 Reference value :  7.81348e-07
 Reference value :  7.98847e-07
 Reference value :  8.97548e-07
 Reference value :  1.00001e-06
 Reference value :  1.00007e-06
 Reference value :  1.00010e-06
 Reference value :  1.00010e-06
 Reference value :  1.00011e-06
 Reference value :  1.00013e-06
 Reference value :  1.00023e-06
 Reference value :  1.00037e-06
 Reference value :  1.00095e-06
 Reference value :  1.00154e-06
 Reference value :  1.00209e-06
 Reference value :  1.00276e-06
 Reference value :  1.00353e-06
 Reference value :  1.00440e-06
 Reference value :  1.00519e-06
 Reference value :  1.00606e-06
 Reference value :  1.00684e-06
 Reference value :  1.00759e-06
 Reference value :  1.00846e-06
 Reference value :  1.00938e-06
 Reference value :  1.01056e-06
 Reference value :  1.01241e-06
 Reference value :  1.01476e-06
 Reference value :  1.01829e-06
 Reference value :  1.02070e-06
 Reference value :  1.02282e-06
 Reference value :  1.02485e-06
 Reference value :  1.02663e-06
 Reference value :  1.02849e-06
 Reference value :  1.03079e-06
 Reference value :  1.03330e-06
 Reference value :  1.03634e-06
 Reference value :  1.04637e-06
 Reference value :  1.05499e-06
 Reference value :  1.06787e-06
 Reference value :  1.08748e-06
 Reference value :  1.11813e-06
 Reference value :  1.16564e-06
 Reference value :  1.23668e-06
 Reference value :  1.25010e-06
 Reference value :  1.25011e-06
 Reference value :  1.25013e-06
 Reference value :  1.25017e-06
 Reference value :  1.25020e-06
 Reference value :  1.25020e-06
 Reference value :  1.25020e-06
 Reference value :  1.25021e-06
 Reference value :  1.25021e-06
 Reference value :  1.25022e-06
 Reference value :  1.25025e-06
 Reference value :  1.25029e-06
 Reference value :  1.25039e-06
 Reference value :  1.25057e-06
 Reference value :  1.25090e-06
 Reference value :  1.25154e-06
 Reference value :  1.25213e-06
 Reference value :  1.25276e-06
 Reference value :  1.25347e-06
 Reference value :  1.25438e-06
 Reference value :  1.25516e-06
 Reference value :  1.25603e-06
 Reference value :  1.25690e-06
 Reference value :  1.25782e-06
 Reference value :  1.25903e-06
 Reference value :  1.26096e-06
 Reference value :  1.26333e-06
 Reference value :  1.26658e-06
 Reference value :  1.27087e-06
 Reference value :  1.27831e-06
 Reference value :  1.29318e-06
 Reference value :  1.32114e-06
 Reference value :  1.37706e-06
 Reference value :  1.48890e-06
 Reference value :  1.50000e-06
 Reference value :  1.50001e-06
 Reference value :  1.50003e-06
 Reference value :  1.50007e-06
 Reference value :  1.50010e-06
 Reference value :  1.50010e-06
 Reference value :  1.50011e-06
 Reference value :  1.50013e-06
 Reference value :  1.50016e-06
 Reference value :  1.50023e-06
 Reference value :  1.50037e-06
 Reference value :  1.50057e-06
 Reference value :  1.50093e-06
 Reference value :  1.50143e-06
 Reference value :  1.50196e-06
 Reference value :  1.50261e-06
 Reference value :  1.50337e-06
 Reference value :  1.50412e-06
 Reference value :  1.50495e-06
 Reference value :  1.50594e-06
 Reference value :  1.50686e-06
 Reference value :  1.50810e-06
 Reference value :  1.50927e-06
 Reference value :  1.51070e-06
 Reference value :  1.51200e-06
 Reference value :  1.51365e-06
 Reference value :  1.51501e-06
 Reference value :  1.51660e-06
 Reference value :  1.51815e-06
 Reference value :  1.51993e-06
 Reference value :  1.52349e-06
 Reference value :  1.52964e-06
 Reference value :  1.53960e-06
 Reference value :  1.55952e-06
 Reference value :  1.59935e-06
 Reference value :  1.67902e-06
 Reference value :  1.75010e-06
 Reference value :  1.75011e-06
 Reference value :  1.75013e-06
 Reference value :  1.75017e-06
 Reference value :  1.75020e-06
 Reference value :  1.75020e-06
 Reference value :  1.75020e-06
 Reference value :  1.75021e-06
 Reference value :  1.75021e-06
 Reference value :  1.75022e-06
 Reference value :  1.75025e-06
 Reference value :  1.75029e-06
 Reference value :  1.75039e-06
 Reference value :  1.75057e-06
 Reference value :  1.75090e-06
 Reference value :  1.75156e-06
 Reference value :  1.75215e-06
 Reference value :  1.75278e-06
 Reference value :  1.75348e-06
 Reference value :  1.75440e-06
 Reference value :  1.75514e-06
 Reference value :  1.75598e-06
 Reference value :  1.75671e-06
 Reference value :  1.75752e-06
 Reference value :  1.75855e-06
 Reference value :  1.75965e-06
 Reference value :  1.76185e-06
 Reference value :  1.76416e-06
 Reference value :  1.76824e-06
 Reference value :  1.77261e-06
 Reference value :  1.78136e-06
 Reference value :  1.79884e-06
 Reference value :  1.83319e-06
 Reference value :  1.90188e-06
 Reference value :  2.00000e-06
 Reference value :  2.00001e-06
 Reference value :  2.00003e-06
 Reference value :  2.00007e-06
 Reference value :  2.00010e-06
 Reference value :  2.00010e-06
 Reference value :  2.00011e-06
 Reference value :  2.00013e-06
 Reference value :  2.00016e-06
 Reference value :  2.00023e-06
 Reference value :  2.00037e-06
 Reference value :  2.00057e-06
 Reference value :  2.00093e-06
 Reference value :  2.00143e-06
 Reference value :  2.00196e-06
 Reference value :  2.00260e-06
 Reference value :  2.00337e-06
 Reference value :  2.00412e-06
 Reference value :  2.00497e-06
 Reference value :  2.00572e-06
 Reference value :  2.00654e-06
 Reference value :  2.00756e-06
 Reference value :  2.00853e-06
 Reference value :  2.00954e-06
 Reference value :  2.01097e-06
 Reference value :  2.01251e-06
 Reference value :  2.01510e-06
 Reference value :  2.01830e-06
 Reference value :  2.02061e-06
 Reference value :  2.02270e-06
 Reference value :  2.02475e-06
 Reference value :  2.02668e-06
 Reference value :  2.02852e-06
 Reference value :  2.03088e-06
 Reference value :  2.03313e-06
 Reference value :  2.03616e-06
 Reference value :  2.03983e-06
 Reference value :  2.04495e-06
 Reference value :  2.04962e-06
 Reference value :  2.05443e-06
 Reference value :  2.05897e-06
 Reference value :  2.06408e-06
 Reference value :  2.06850e-06
 Reference value :  2.07302e-06
 Reference value :  2.07848e-06
 Reference value :  2.08546e-06
 Reference value :  2.09290e-06
 Reference value :  2.09968e-06
 Reference value :  2.10811e-06
 Reference value :  2.12019e-06
 Reference value :  2.14052e-06
 Reference value :  2.17663e-06
 Reference value :  2.23920e-06
 Reference value :  2.25010e-06
 Reference value :  2.25011e-06
 Reference value :  2.25013e-06
 Reference value :  2.25017e-06
 Reference value :  2.25020e-06
 Reference value :  2.25020e-06
 Reference value :  2.25021e-06
 Reference value :  2.25022e-06
 Reference value :  2.25029e-06
 Reference value :  2.25039e-06
 Reference value :  2.25058e-06
 Reference value :  2.25091e-06
 Reference value :  2.25158e-06
 Reference value :  2.25218e-06
 Reference value :  2.25282e-06
 Reference value :  2.25352e-06
 Reference value :  2.25441e-06
 Reference value :  2.25512e-06
 Reference value :  2.25592e-06
 Reference value :  2.25678e-06
 Reference value :  2.25766e-06
 Reference value :  2.25882e-06
 Reference value :  2.26072e-06
 Reference value :  2.26320e-06
 Reference value :  2.26620e-06
 Reference value :  2.27053e-06
 Reference value :  2.27699e-06
 Reference value :  2.28992e-06
 Reference value :  2.31578e-06
 Reference value :  2.36750e-06
 Reference value :  2.47032e-06
 Reference value :  2.50000e-06
 Reference value :  2.50001e-06
 Reference value :  2.50003e-06
 Reference value :  2.50007e-06
 Reference value :  2.50010e-06
 Reference value :  2.50010e-06
 Reference value :  2.50011e-06
 Reference value :  2.50013e-06
 Reference value :  2.50023e-06
 Reference value :  2.50037e-06
 Reference value :  2.50093e-06
 Reference value :  2.50144e-06
 Reference value :  2.50196e-06
 Reference value :  2.50256e-06
 Reference value :  2.50328e-06
 Reference value :  2.50403e-06
 Reference value :  2.50495e-06
 Reference value :  2.50585e-06
 Reference value :  2.50684e-06
 Reference value :  2.50810e-06
 Reference value :  2.50936e-06
 Reference value :  2.51067e-06
 Reference value :  2.51366e-06
 Reference value :  2.51504e-06
 Reference value :  2.51661e-06
 Reference value :  2.51815e-06
 Reference value :  2.51995e-06
 Reference value :  2.52354e-06
 Reference value :  2.52899e-06
 Reference value :  2.53989e-06
 Reference value :  2.56098e-06
 Reference value :  2.60317e-06
 Reference value :  2.68754e-06
 Reference value :  2.75010e-06
 Reference value :  2.75011e-06
 Reference value :  2.75013e-06
 Reference value :  2.75017e-06
 Reference value :  2.75020e-06
 Reference value :  2.75020e-06
 Reference value :  2.75020e-06
 Reference value :  2.75021e-06
 Reference value :  2.75021e-06
 Reference value :  2.75022e-06
 Reference value :  2.75025e-06
 Reference value :  2.75029e-06
 Reference value :  2.75039e-06
 Reference value :  2.75057e-06
 Reference value :  2.75090e-06
 Reference value :  2.75156e-06
 Reference value :  2.75215e-06
 Reference value :  2.75279e-06
 Reference value :  2.75349e-06
 Reference value :  2.75440e-06
 Reference value :  2.75514e-06
 Reference value :  2.75598e-06
 Reference value :  2.75671e-06
 Reference value :  2.75751e-06
 Reference value :  2.75855e-06
 Reference value :  2.75965e-06
 Reference value :  2.76078e-06
 Reference value :  2.76248e-06
 Reference value :  2.76453e-06
 Reference value :  2.76718e-06
 Reference value :  2.77528e-06
 Reference value :  2.79825e-06
 Reference value :  2.82598e-06
 Reference value :  2.88144e-06
 Reference value :  3.00000e-06
 Reference value :  3.00001e-06
 Reference value :  3.00003e-06
 Reference value :  3.00007e-06
 Reference value :  3.00010e-06
 Reference value :  3.00010e-06
 Reference value :  3.00011e-06
 Reference value :  3.00013e-06
 Reference value :  3.00017e-06
 Reference value :  3.00023e-06
 Reference value :  3.00037e-06
 Reference value :  3.00093e-06
 Reference value :  3.00145e-06
 Reference value :  3.00198e-06
 Reference value :  3.00262e-06
 Reference value :  3.00415e-06
 Reference value :  3.00498e-06
 Reference value :  3.00572e-06
 Reference value :  3.00650e-06
 Reference value :  3.00723e-06
 Reference value :  3.00806e-06
 Reference value :  3.00887e-06
 Reference value :  3.00995e-06
 Reference value :  3.01115e-06
 Reference value :  3.01297e-06
 Reference value :  3.01491e-06
 Reference value :  3.01658e-06
 Reference value :  3.01831e-06
 Reference value :  3.02019e-06
 Reference value :  3.02172e-06
 Reference value :  3.02324e-06
 Reference value :  3.02505e-06
 Reference value :  3.02677e-06
 Reference value :  3.02833e-06
 Reference value :  3.03043e-06
 Reference value :  3.03314e-06
 Reference value :  3.03595e-06
 Reference value :  3.04083e-06
 Reference value :  3.05763e-06
 Reference value :  3.07421e-06
 Reference value :  3.10336e-06
 Reference value :  3.14714e-06
 Reference value :  3.19105e-06
 Reference value :  3.22244e-06
 Reference value :  3.25010e-06
 Reference value :  3.25011e-06
 Reference value :  3.25017e-06
 Reference value :  3.25020e-06
 Reference value :  3.25020e-06
 Reference value :  3.25021e-06
 Reference value :  3.25022e-06
 Reference value :  3.25029e-06
 Reference value :  3.25039e-06
 Reference value :  3.25058e-06
 Reference value :  3.25091e-06
 Reference value :  3.25157e-06
 Reference value :  3.25217e-06
 Reference value :  3.25282e-06
 Reference value :  3.25352e-06
 Reference value :  3.25441e-06
 Reference value :  3.25513e-06
 Reference value :  3.25594e-06
 Reference value :  3.25678e-06
 Reference value :  3.25766e-06
 Reference value :  3.25883e-06
 Reference value :  3.26066e-06
 Reference value :  3.26317e-06
 Reference value :  3.26614e-06
 Reference value :  3.27048e-06
 Reference value :  3.27680e-06
 Reference value :  3.28945e-06
 Reference value :  3.31473e-06
 Reference value :  3.36531e-06
 Reference value :  3.46645e-06
 Reference value :  3.50000e-06
 Reference value :  3.50001e-06
 Reference value :  3.50003e-06
 Reference value :  3.50007e-06
 Reference value :  3.50010e-06
 Reference value :  3.50010e-06
 Reference value :  3.50011e-06
 Reference value :  3.50013e-06
 Reference value :  3.50016e-06
 Reference value :  3.50023e-06
 Reference value :  3.50037e-06
 Reference value :  3.50057e-06
 Reference value :  3.50093e-06
 Reference value :  3.50144e-06
 Reference value :  3.50196e-06
 Reference value :  3.50256e-06
 Reference value :  3.50328e-06
 Reference value :  3.50403e-06
 Reference value :  3.50495e-06
 Reference value :  3.50584e-06
 Reference value :  3.50684e-06
 Reference value :  3.50798e-06
 Reference value :  3.50926e-06
 Reference value :  3.51049e-06
 Reference value :  3.51176e-06
 Reference value :  3.51350e-06
 Reference value :  3.51494e-06
 Reference value :  3.51650e-06
 Reference value :  3.51807e-06
 Reference value :  3.51990e-06
 Reference value :  3.52343e-06
 Reference value :  3.52853e-06
 Reference value :  3.53872e-06
 Reference value :  3.55912e-06
 Reference value :  3.59992e-06
 Reference value :  3.68151e-06
 Reference value :  3.75010e-06
 Reference value :  3.75011e-06
 Reference value :  3.75013e-06
 Reference value :  3.75020e-06
 Reference value :  3.75020e-06
 Reference value :  3.75021e-06
 Reference value :  3.75022e-06
 Reference value :  3.75029e-06
 Reference value :  3.75039e-06
 Reference value :  3.75057e-06
 Reference value :  3.75156e-06
 Reference value :  3.75215e-06
 Reference value :  3.75279e-06
 Reference value :  3.75349e-06
 Reference value :  3.75440e-06
 Reference value :  3.75514e-06
 Reference value :  3.75597e-06
 Reference value :  3.75669e-06
 Reference value :  3.75749e-06
 Reference value :  3.75852e-06
 Reference value :  3.75962e-06
 Reference value :  3.76068e-06
 Reference value :  3.76245e-06
 Reference value :  3.76422e-06
 Reference value :  3.76710e-06
 Reference value :  3.77035e-06
 Reference value :  3.77502e-06
 Reference value :  3.79471e-06
 Reference value :  3.85485e-06
 Reference value :  3.91876e-06
 Reference value :  4.00000e-06
 Reference value :  4.00001e-06
 Reference value :  4.00003e-06
 Reference value :  4.00007e-06
 Reference value :  4.00010e-06
 Reference value :  4.00010e-06
 Reference value :  4.00011e-06
 Reference value :  4.00013e-06
 Reference value :  4.00017e-06
 Reference value :  4.00023e-06
 Reference value :  4.00037e-06
 Reference value :  4.00057e-06
 Reference value :  4.00093e-06
 Reference value :  4.00145e-06
 Reference value :  4.00198e-06
 Reference value :  4.00262e-06
 Reference value :  4.00338e-06
 Reference value :  4.00415e-06
 Reference value :  4.00498e-06
 Reference value :  4.00570e-06
 Reference value :  4.00648e-06
 Reference value :  4.00720e-06
 Reference value :  4.00804e-06
 Reference value :  4.00886e-06
 Reference value :  4.00995e-06
 Reference value :  4.01118e-06
 Reference value :  4.01322e-06
 Reference value :  4.01459e-06
 Reference value :  4.01612e-06
 Reference value :  4.01767e-06
 Reference value :  4.01940e-06
 Reference value :  4.02101e-06
 Reference value :  4.02234e-06
 Reference value :  4.02379e-06
 Reference value :  4.02512e-06
 Reference value :  4.02662e-06
 Reference value :  4.02812e-06
 Reference value :  4.02971e-06
 Reference value :  4.03236e-06
 Reference value :  4.03531e-06
 Reference value :  4.04122e-06
 Reference value :  4.05215e-06
 Reference value :  4.06915e-06
 Reference value :  4.08285e-06
 Reference value :  4.09426e-06
 Reference value :  4.09951e-06
 Reference value :  4.10458e-06
 Reference value :  4.11002e-06
 Reference value :  4.11922e-06
 Reference value :  4.14688e-06
 Reference value :  4.17173e-06
 Reference value :  4.20697e-06
 Reference value :  4.25010e-06
 Reference value :  4.25011e-06
 Reference value :  4.25013e-06
 Reference value :  4.25017e-06
 Reference value :  4.25020e-06
 Reference value :  4.25020e-06
 Reference value :  4.25020e-06
 Reference value :  4.25021e-06
 Reference value :  4.25021e-06
 Reference value :  4.25022e-06
 Reference value :  4.25025e-06
 Reference value :  4.25029e-06
 Reference value :  4.25039e-06
 Reference value :  4.25058e-06
 Reference value :  4.25091e-06
 Reference value :  4.25157e-06
 Reference value :  4.25217e-06
 Reference value :  4.25282e-06
 Reference value :  4.25352e-06
 Reference value :  4.25442e-06
 Reference value :  4.25515e-06
 Reference value :  4.25598e-06
 Reference value :  4.25683e-06
 Reference value :  4.25772e-06
 Reference value :  4.25891e-06
 Reference value :  4.26073e-06
 Reference value :  4.26320e-06
 Reference value :  4.26625e-06
 Reference value :  4.27058e-06
 Reference value :  4.27702e-06
 Reference value :  4.28991e-06
 Reference value :  4.31568e-06
 Reference value :  4.36723e-06
 Reference value :  4.47032e-06
 Reference value :  4.50000e-06
 Reference value :  4.50001e-06
 Reference value :  4.50003e-06
 Reference value :  4.50007e-06
 Reference value :  4.50010e-06
 Reference value :  4.50010e-06
 Reference value :  4.50011e-06
 Reference value :  4.50013e-06
 Reference value :  4.50016e-06
 Reference value :  4.50023e-06
 Reference value :  4.50037e-06
 Reference value :  4.50057e-06
 Reference value :  4.50093e-06
 Reference value :  4.50143e-06
 Reference value :  4.50196e-06
 Reference value :  4.50260e-06
 Reference value :  4.50336e-06
 Reference value :  4.50412e-06
 Reference value :  4.50493e-06
 Reference value :  4.50583e-06
 Reference value :  4.50675e-06
 Reference value :  4.50786e-06
 Reference value :  4.50905e-06
 Reference value :  4.51021e-06
 Reference value :  4.51143e-06
 Reference value :  4.51309e-06
 Reference value :  4.51449e-06
 Reference value :  4.51600e-06
 Reference value :  4.51755e-06
 Reference value :  4.51934e-06
 Reference value :  4.52277e-06
 Reference value :  4.52779e-06
 Reference value :  4.53783e-06
 Reference value :  4.55792e-06
 Reference value :  4.59809e-06
 Reference value :  4.67844e-06
 Reference value :  4.75010e-06
 Reference value :  4.75011e-06
 Reference value :  4.75013e-06
 Reference value :  4.75017e-06
 Reference value :  4.75020e-06
 Reference value :  4.75020e-06
 Reference value :  4.75020e-06
 Reference value :  4.75021e-06
 Reference value :  4.75021e-06
 Reference value :  4.75022e-06
 Reference value :  4.75025e-06
 Reference value :  4.75029e-06
 Reference value :  4.75039e-06
 Reference value :  4.75057e-06
 Reference value :  4.75155e-06
 Reference value :  4.75215e-06
 Reference value :  4.75278e-06
 Reference value :  4.75348e-06
 Reference value :  4.75440e-06
 Reference value :  4.75515e-06
 Reference value :  4.75598e-06
 Reference value :  4.75671e-06
 Reference value :  4.75751e-06
 Reference value :  4.75855e-06
 Reference value :  4.75965e-06
 Reference value :  4.76186e-06
 Reference value :  4.76418e-06
 Reference value :  4.76826e-06
 Reference value :  4.77263e-06
 Reference value :  4.78138e-06
 Reference value :  4.79889e-06
 Reference value :  4.83390e-06
 Reference value :  4.90392e-06
 Reference value :  5.00000e-06
 Reference value :  5.00001e-06
 Reference value :  5.00003e-06
 Reference value :  5.00007e-06
 Reference value :  5.00010e-06
 Reference value :  5.00010e-06
 Reference value :  5.00011e-06
 Reference value :  5.00013e-06
 Reference value :  5.00016e-06
 Reference value :  5.00023e-06
 Reference value :  5.00037e-06
 Reference value :  5.00057e-06
 Reference value :  5.00093e-06
 Reference value :  5.00143e-06
 Reference value :  5.00196e-06
 Reference value :  5.00260e-06
 Reference value :  5.00336e-06
 Reference value :  5.00412e-06
 Reference value :  5.00497e-06
 Reference value :  5.00572e-06
 Reference value :  5.00653e-06
 Reference value :  5.00734e-06
 Reference value :  5.00833e-06
 Reference value :  5.00924e-06
 Reference value :  5.01050e-06
 Reference value :  5.01208e-06
 Reference value :  5.01443e-06
 Reference value :  5.01784e-06
 Reference value :  5.02020e-06
 Reference value :  5.02227e-06
 Reference value :  5.02424e-06
 Reference value :  5.02618e-06
 Reference value :  5.02805e-06
 Reference value :  5.03034e-06
 Reference value :  5.03250e-06
 Reference value :  5.03545e-06
 Reference value :  5.03888e-06
 Reference value :  5.04398e-06
 Reference value :  5.04967e-06
 Reference value :  5.05644e-06
 Reference value :  5.06102e-06
 Reference value :  5.06587e-06
 Reference value :  5.07162e-06
 Reference value :  5.07771e-06
 Reference value :  5.08648e-06
 Reference value :  5.09340e-06
 Reference value :  5.10182e-06
 Reference value :  5.11230e-06
 Reference value :  5.12956e-06
 Reference value :  5.15195e-06
 Reference value :  5.18862e-06
 Reference value :  5.24651e-06
 Reference value :  5.25010e-06
 Reference value :  5.25011e-06
 Reference value :  5.25013e-06
 Reference value :  5.25017e-06
 Reference value :  5.25020e-06
 Reference value :  5.25020e-06
 Reference value :  5.25020e-06
 Reference value :  5.25021e-06
 Reference value :  5.25021e-06
 Reference value :  5.25022e-06
 Reference value :  5.25025e-06
 Reference value :  5.25029e-06
 Reference value :  5.25039e-06
 Reference value :  5.25057e-06
 Reference value :  5.25090e-06
 Reference value :  5.25156e-06
 Reference value :  5.25216e-06
 Reference value :  5.25280e-06
 Reference value :  5.25350e-06
 Reference value :  5.25442e-06
 Reference value :  5.25513e-06
 Reference value :  5.25594e-06
 Reference value :  5.25681e-06
 Reference value :  5.25770e-06
 Reference value :  5.25885e-06
 Reference value :  5.26086e-06
 Reference value :  5.26325e-06
 Reference value :  5.27064e-06
 Reference value :  5.29126e-06
 Reference value :  5.31875e-06
 Reference value :  5.37373e-06
 Reference value :  5.48369e-06
 Reference value :  5.50000e-06
 Reference value :  5.50001e-06
 Reference value :  5.50007e-06
 Reference value :  5.50010e-06
 Reference value :  5.50010e-06
 Reference value :  5.50011e-06
 Reference value :  5.50013e-06
 Reference value :  5.50016e-06
 Reference value :  5.50023e-06
 Reference value :  5.50037e-06
 Reference value :  5.50057e-06
 Reference value :  5.50093e-06
 Reference value :  5.50144e-06
 Reference value :  5.50196e-06
 Reference value :  5.50256e-06
 Reference value :  5.50328e-06
 Reference value :  5.50403e-06
 Reference value :  5.50495e-06
 Reference value :  5.50586e-06
 Reference value :  5.50685e-06
 Reference value :  5.50811e-06
 Reference value :  5.50926e-06
 Reference value :  5.51067e-06
 Reference value :  5.51201e-06
 Reference value :  5.51359e-06
 Reference value :  5.51529e-06
 Reference value :  5.51706e-06
 Reference value :  5.51916e-06
 Reference value :  5.52265e-06
 Reference value :  5.52778e-06
 Reference value :  5.53709e-06
 Reference value :  5.55411e-06
 Reference value :  5.58483e-06
 Reference value :  5.64463e-06
 Reference value :  5.75010e-06
 Reference value :  5.75011e-06
 Reference value :  5.75013e-06
 Reference value :  5.75017e-06
 Reference value :  5.75020e-06
 Reference value :  5.75020e-06
 Reference value :  5.75020e-06
 Reference value :  5.75021e-06
 Reference value :  5.75021e-06
 Reference value :  5.75022e-06
 Reference value :  5.75025e-06
 Reference value :  5.75039e-06
 Reference value :  5.75091e-06
 Reference value :  5.75158e-06
 Reference value :  5.75218e-06
 Reference value :  5.75283e-06
 Reference value :  5.75353e-06
 Reference value :  5.75443e-06
 Reference value :  5.75515e-06
 Reference value :  5.75596e-06
 Reference value :  5.75667e-06
 Reference value :  5.75747e-06
 Reference value :  5.75849e-06
 Reference value :  5.75957e-06
 Reference value :  5.76066e-06
 Reference value :  5.76241e-06
 Reference value :  5.76423e-06
 Reference value :  5.76708e-06
 Reference value :  5.77035e-06
 Reference value :  5.77499e-06
 Reference value :  5.78410e-06
 Reference value :  5.79597e-06
 Reference value :  5.81931e-06
 Reference value :  5.86389e-06
 Reference value :  5.95011e-06
 Reference value :  6.00000e-06
 Reference value :  6.00001e-06
 Reference value :  6.00003e-06
 Reference value :  6.00007e-06
 Reference value :  6.00010e-06
 Reference value :  6.00010e-06
 Reference value :  6.00011e-06
 Reference value :  6.00013e-06
 Reference value :  6.00017e-06
 Reference value :  6.00023e-06
 Reference value :  6.00037e-06
 Reference value :  6.00057e-06
 Reference value :  6.00093e-06
 Reference value :  6.00145e-06
 Reference value :  6.00198e-06
 Reference value :  6.00262e-06
 Reference value :  6.00338e-06
 Reference value :  6.00415e-06
 Reference value :  6.00498e-06
 Reference value :  6.00571e-06
 Reference value :  6.00649e-06
 Reference value :  6.00722e-06
 Reference value :  6.00805e-06
 Reference value :  6.00896e-06
 Reference value :  6.01001e-06
 Reference value :  6.01161e-06
 Reference value :  6.01350e-06
 Reference value :  6.01487e-06
 Reference value :  6.01640e-06
 Reference value :  6.01818e-06
 Reference value :  6.02002e-06
 Reference value :  6.02194e-06
 Reference value :  6.02359e-06
 Reference value :  6.02532e-06
 Reference value :  6.02691e-06
 Reference value :  6.02854e-06
 Reference value :  6.03047e-06
 Reference value :  6.03301e-06
 Reference value :  6.04089e-06
 Reference value :  6.04777e-06
 Reference value :  6.05629e-06
 Reference value :  6.06414e-06
 Reference value :  6.07676e-06
 Reference value :  6.08905e-06
 Reference value :  6.10338e-06
 Reference value :  6.11907e-06
 Reference value :  6.13610e-06
 Reference value :  6.15839e-06
 Reference value :  6.18380e-06
 Reference value :  6.23464e-06
 Reference value :  6.25010e-06
 Reference value :  6.25011e-06
 Reference value :  6.25013e-06
 Reference value :  6.25017e-06
 Reference value :  6.25020e-06
 Reference value :  6.25020e-06
 Reference value :  6.25020e-06
 Reference value :  6.25021e-06
 Reference value :  6.25021e-06
 Reference value :  6.25022e-06
 Reference value :  6.25025e-06
 Reference value :  6.25029e-06
 Reference value :  6.25039e-06
 Reference value :  6.25058e-06
 Reference value :  6.25091e-06
 Reference value :  6.25157e-06
 Reference value :  6.25218e-06
 Reference value :  6.25282e-06
 Reference value :  6.25353e-06
 Reference value :  6.25442e-06
 Reference value :  6.25513e-06
 Reference value :  6.25593e-06
 Reference value :  6.25678e-06
 Reference value :  6.25765e-06
 Reference value :  6.25882e-06
 Reference value :  6.26066e-06
 Reference value :  6.26614e-06
 Reference value :  6.27048e-06
 Reference value :  6.27679e-06
 Reference value :  6.28940e-06
 Reference value :  6.31463e-06
 Reference value :  6.36509e-06
 Reference value :  6.46602e-06
 Reference value :  6.50000e-06
 Reference value :  6.50001e-06
 Reference value :  6.50003e-06
 Reference value :  6.50007e-06
 Reference value :  6.50010e-06
 Reference value :  6.50010e-06
 Reference value :  6.50011e-06
 Reference value :  6.50013e-06
 Reference value :  6.50016e-06
 Reference value :  6.50023e-06
 Reference value :  6.50037e-06
 Reference value :  6.50057e-06
 Reference value :  6.50093e-06
 Reference value :  6.50144e-06
 Reference value :  6.50196e-06
 Reference value :  6.50256e-06
 Reference value :  6.50328e-06
 Reference value :  6.50403e-06
 Reference value :  6.50495e-06
 Reference value :  6.50585e-06
 Reference value :  6.50684e-06
 Reference value :  6.50798e-06
 Reference value :  6.50929e-06
 Reference value :  6.51052e-06
 Reference value :  6.51179e-06
 Reference value :  6.51355e-06
 Reference value :  6.51522e-06
 Reference value :  6.51686e-06
 Reference value :  6.51890e-06
 Reference value :  6.52113e-06
 Reference value :  6.52486e-06
 Reference value :  6.53980e-06
 Reference value :  6.55686e-06
 Reference value :  6.64342e-06
 Reference value :  6.74668e-06
 Reference value :  6.75010e-06
 Reference value :  6.75011e-06
 Reference value :  6.75013e-06
 Reference value :  6.75017e-06
 Reference value :  6.75020e-06
 Reference value :  6.75020e-06
 Reference value :  6.75020e-06
 Reference value :  6.75021e-06
 Reference value :  6.75021e-06
 Reference value :  6.75022e-06
 Reference value :  6.75025e-06
 Reference value :  6.75029e-06
 Reference value :  6.75039e-06
 Reference value :  6.75058e-06
 Reference value :  6.75091e-06
 Reference value :  6.75158e-06
 Reference value :  6.75219e-06
 Reference value :  6.75283e-06
 Reference value :  6.75353e-06
 Reference value :  6.75443e-06
 Reference value :  6.75514e-06
 Reference value :  6.75595e-06
 Reference value :  6.75666e-06
 Reference value :  6.75745e-06
 Reference value :  6.75847e-06
 Reference value :  6.75956e-06
 Reference value :  6.76059e-06
 Reference value :  6.76218e-06
 Reference value :  6.76672e-06
 Reference value :  6.77431e-06
 Reference value :  6.79179e-06
 Reference value :  6.83715e-06
 Reference value :  6.88649e-06
 Reference value :  6.97114e-06
 Reference value :  7.00000e-06
 Reference value :  7.00001e-06
 Reference value :  7.00003e-06
 Reference value :  7.00007e-06
 Reference value :  7.00010e-06
 Reference value :  7.00010e-06
 Reference value :  7.00011e-06
 Reference value :  7.00013e-06
 Reference value :  7.00016e-06
 Reference value :  7.00023e-06
 Reference value :  7.00037e-06
 Reference value :  7.00057e-06
 Reference value :  7.00093e-06
 Reference value :  7.00143e-06
 Reference value :  7.00196e-06
 Reference value :  7.00260e-06
 Reference value :  7.00336e-06
 Reference value :  7.00412e-06
 Reference value :  7.00495e-06
 Reference value :  7.00567e-06
 Reference value :  7.00646e-06
 Reference value :  7.00718e-06
 Reference value :  7.00803e-06
 Reference value :  7.00894e-06
 Reference value :  7.00999e-06
 Reference value :  7.01143e-06
 Reference value :  7.01343e-06
 Reference value :  7.01489e-06
 Reference value :  7.01648e-06
 Reference value :  7.01817e-06
 Reference value :  7.01993e-06
 Reference value :  7.02168e-06
 Reference value :  7.02296e-06
 Reference value :  7.02418e-06
 Reference value :  7.02535e-06
 Reference value :  7.02675e-06
 Reference value :  7.02813e-06
 Reference value :  7.02957e-06
 Reference value :  7.03201e-06
 Reference value :  7.03458e-06
 Reference value :  7.03863e-06
 Reference value :  7.04310e-06
 Reference value :  7.04888e-06
 Reference value :  7.05757e-06
 Reference value :  7.07495e-06
 Reference value :  7.09997e-06
 Reference value :  7.12804e-06
 Reference value :  7.16224e-06
 Reference value :  7.21644e-06
 Reference value :  7.25010e-06
 Reference value :  7.25011e-06
 Reference value :  7.25013e-06
 Reference value :  7.25017e-06
 Reference value :  7.25020e-06
 Reference value :  7.25020e-06
 Reference value :  7.25021e-06
 Reference value :  7.25021e-06
 Reference value :  7.25022e-06
 Reference value :  7.25025e-06
 Reference value :  7.25029e-06
 Reference value :  7.25039e-06
 Reference value :  7.25058e-06
 Reference value :  7.25092e-06
 Reference value :  7.25158e-06
 Reference value :  7.25219e-06
 Reference value :  7.25283e-06
 Reference value :  7.25354e-06
 Reference value :  7.25443e-06
 Reference value :  7.25512e-06
 Reference value :  7.25590e-06
 Reference value :  7.25677e-06
 Reference value :  7.25765e-06
 Reference value :  7.25879e-06
 Reference value :  7.26074e-06
 Reference value :  7.26321e-06
 Reference value :  7.26622e-06
 Reference value :  7.27054e-06
 Reference value :  7.27702e-06
 Reference value :  7.29000e-06
 Reference value :  7.31595e-06
 Reference value :  7.36785e-06
 Reference value :  7.47165e-06
 Reference value :  7.50000e-06
 Reference value :  7.50001e-06
 Reference value :  7.50003e-06
 Reference value :  7.50007e-06
 Reference value :  7.50010e-06
 Reference value :  7.50010e-06
 Reference value :  7.50011e-06
 Reference value :  7.50013e-06
 Reference value :  7.50016e-06
 Reference value :  7.50023e-06
 Reference value :  7.50037e-06
 Reference value :  7.50056e-06
 Reference value :  7.50092e-06
 Reference value :  7.50145e-06
 Reference value :  7.50199e-06
 Reference value :  7.50261e-06
 Reference value :  7.50332e-06
 Reference value :  7.50409e-06
 Reference value :  7.50500e-06
 Reference value :  7.50595e-06
 Reference value :  7.50694e-06
 Reference value :  7.50818e-06
 Reference value :  7.50938e-06
 Reference value :  7.51068e-06
 Reference value :  7.51200e-06
 Reference value :  7.51362e-06
 Reference value :  7.51510e-06
 Reference value :  7.51665e-06
 Reference value :  7.51842e-06
 Reference value :  7.52038e-06
 Reference value :  7.52388e-06
 Reference value :  7.52897e-06
 Reference value :  7.53862e-06
 Reference value :  7.55664e-06
 Reference value :  7.59016e-06
 Reference value :  7.65722e-06
 Reference value :  7.73177e-06
 Reference value :  7.75010e-06
 Reference value :  7.75011e-06
 Reference value :  7.75013e-06
 Reference value :  7.75017e-06
 Reference value :  7.75020e-06
 Reference value :  7.75020e-06
 Reference value :  7.75020e-06
 Reference value :  7.75021e-06
 Reference value :  7.75021e-06
 Reference value :  7.75022e-06
 Reference value :  7.75025e-06
 Reference value :  7.75029e-06
 Reference value :  7.75039e-06
 Reference value :  7.75058e-06
 Reference value :  7.75092e-06
 Reference value :  7.75159e-06
 Reference value :  7.75220e-06
 Reference value :  7.75285e-06
 Reference value :  7.75356e-06
 Reference value :  7.75444e-06
 Reference value :  7.75513e-06
 Reference value :  7.75592e-06
 Reference value :  7.75663e-06
 Reference value :  7.75741e-06
 Reference value :  7.75843e-06
 Reference value :  7.75952e-06
 Reference value :  7.76060e-06
 Reference value :  7.76238e-06
 Reference value :  7.76412e-06
 Reference value :  7.76705e-06
 Reference value :  7.77028e-06
 Reference value :  7.77496e-06
 Reference value :  7.78364e-06
 Reference value :  7.79497e-06
 Reference value :  7.81605e-06
 Reference value :  7.85675e-06
 Reference value :  7.92597e-06
 Reference value :  8.00000e-06
 Reference value :  8.00001e-06
 Reference value :  8.00003e-06
 Reference value :  8.00007e-06
 Reference value :  8.00010e-06
 Reference value :  8.00010e-06
 Reference value :  8.00011e-06
 Reference value :  8.00013e-06
 Reference value :  8.00017e-06
 Reference value :  8.00023e-06
 Reference value :  8.00037e-06
 Reference value :  8.00057e-06
 Reference value :  8.00093e-06
 Reference value :  8.00151e-06
 Reference value :  8.00205e-06
 Reference value :  8.00270e-06
 Reference value :  8.00347e-06
 Reference value :  8.00429e-06
 Reference value :  8.00514e-06
 Reference value :  8.00596e-06
 Reference value :  8.00670e-06
 Reference value :  8.00742e-06
 Reference value :  8.00823e-06
 Reference value :  8.00915e-06
 Reference value :  8.01026e-06
 Reference value :  8.01211e-06
 Reference value :  8.01415e-06
 Reference value :  8.01570e-06
 Reference value :  8.01736e-06
 Reference value :  8.01905e-06
 Reference value :  8.02090e-06
 Reference value :  8.02280e-06
 Reference value :  8.02492e-06
 Reference value :  8.02793e-06
 Reference value :  8.03143e-06
 Reference value :  8.03520e-06
 Reference value :  8.03804e-06
 Reference value :  8.04088e-06
 Reference value :  8.04406e-06
 Reference value :  8.05133e-06
 Reference value :  8.07069e-06
 Reference value :  8.09219e-06
 Reference value :  8.20052e-06
 Reference value :  8.25010e-06
 Reference value :  8.25011e-06
 Reference value :  8.25013e-06
 Reference value :  8.25017e-06
 Reference value :  8.25020e-06
 Reference value :  8.25020e-06
 Reference value :  8.25020e-06
 Reference value :  8.25021e-06
 Reference value :  8.25021e-06
 Reference value :  8.25022e-06
 Reference value :  8.25025e-06
 Reference value :  8.25029e-06
 Reference value :  8.25039e-06
 Reference value :  8.25057e-06
 Reference value :  8.25095e-06
 Reference value :  8.25158e-06
 Reference value :  8.25220e-06
 Reference value :  8.25285e-06
 Reference value :  8.25356e-06
 Reference value :  8.25444e-06
 Reference value :  8.25540e-06
 Reference value :  8.25661e-06
 Reference value :  8.25790e-06
 Reference value :  8.25938e-06
 Reference value :  8.26199e-06
 Reference value :  8.26454e-06
 Reference value :  8.26850e-06
 Reference value :  8.27324e-06
 Reference value :  8.28271e-06
 Reference value :  8.30167e-06
 Reference value :  8.33957e-06
 Reference value :  8.41537e-06
 Reference value :  8.50000e-06
 Reference value :  8.50001e-06
 Reference value :  8.50003e-06
 Reference value :  8.50007e-06
 Reference value :  8.50010e-06
 Reference value :  8.50010e-06
 Reference value :  8.50011e-06
 Reference value :  8.50013e-06
 Reference value :  8.50016e-06
 Reference value :  8.50023e-06
 Reference value :  8.50037e-06
 Reference value :  8.50064e-06
 Reference value :  8.50112e-06
 Reference value :  8.50178e-06
 Reference value :  8.50246e-06
 Reference value :  8.50309e-06
 Reference value :  8.50384e-06
 Reference value :  8.50451e-06
 Reference value :  8.50531e-06
 Reference value :  8.50617e-06
 Reference value :  8.50713e-06
 Reference value :  8.50861e-06
 Reference value :  8.51022e-06
 Reference value :  8.51166e-06
 Reference value :  8.51315e-06
 Reference value :  8.51507e-06
 Reference value :  8.51767e-06
 Reference value :  8.52055e-06
 Reference value :  8.52632e-06
 Reference value :  8.53192e-06
 Reference value :  8.53713e-06
 Reference value :  8.54115e-06
 Reference value :  8.54477e-06
 Reference value :  8.54785e-06
 Reference value :  8.55046e-06
 Reference value :  8.55319e-06
 Reference value :  8.55577e-06
 Reference value :  8.55851e-06
 Reference value :  8.56364e-06
 Reference value :  8.56926e-06
 Reference value :  8.57889e-06
 Reference value :  8.59324e-06
 Reference value :  8.60956e-06
 Reference value :  8.62543e-06
 Reference value :  8.64252e-06
 Reference value :  8.67237e-06
 Reference value :  8.71416e-06
 Reference value :  8.75010e-06
 Reference value :  8.75011e-06
 Reference value :  8.75013e-06
 Reference value :  8.75017e-06
 Reference value :  8.75020e-06
 Reference value :  8.75020e-06
 Reference value :  8.75020e-06
 Reference value :  8.75021e-06
 Reference value :  8.75021e-06
 Reference value :  8.75022e-06
 Reference value :  8.75025e-06
 Reference value :  8.75029e-06
 Reference value :  8.75039e-06
 Reference value :  8.75058e-06
 Reference value :  8.75096e-06
 Reference value :  8.75163e-06
 Reference value :  8.75224e-06
 Reference value :  8.75291e-06
 Reference value :  8.75361e-06
 Reference value :  8.75449e-06
 Reference value :  8.75519e-06
 Reference value :  8.75600e-06
 Reference value :  8.75681e-06
 Reference value :  8.75767e-06
 Reference value :  8.75880e-06
 Reference value :  8.76054e-06
 Reference value :  8.76326e-06
 Reference value :  8.76610e-06
 Reference value :  8.77058e-06
 Reference value :  8.77660e-06
 Reference value :  8.78862e-06
 Reference value :  8.81268e-06
 Reference value :  8.86078e-06
 Reference value :  8.92127e-06
 Reference value :  8.98791e-06
 Reference value :  9.00000e-06
No. of Data Rows : 1419
ngspice-44 done
