
Note: Compatibility modes selected: hs a


Circuit: ** sch_path: /home/issa/cace/sar-adc-using-sky130-pdk/runs/run_2025-09-10_08-24-53/parameters/dnl/run_0/sar_output_dnl.sch

option SCALE: Scale is set to 1e-06 for instance and model parameters
option SCALE: Scale is set to 1e-06 for instance and model parameters
option SCALE: Scale is set to 1e-06 for instance and model parameters
option SCALE: Scale is set to 1e-06 for instance and model parameters
Doing analysis at TEMP = 27.000000 and TNOM = 27.000000

Using KLU as Direct Linear Solver
Operating point simulation skipped by 'uic',
  now using transient initial conditions.
 Reference value :  1.00000e-12
 Reference value :  1.02772e-12
 Reference value :  1.08316e-12
 Reference value :  1.19404e-12
 Reference value :  1.33846e-12
 Reference value :  1.62729e-12
 Reference value :  2.20497e-12
 Reference value :  3.05074e-12
 Reference value :  3.95611e-12
 Reference value :  5.17301e-12
 Reference value :  6.90414e-12
 Reference value :  1.02154e-11
 Reference value :  1.39050e-11
 Reference value :  2.08049e-11
 Reference value :  2.75532e-11
 Reference value :  3.66539e-11
 Reference value :  4.76677e-11
 Reference value :  6.50192e-11
 Reference value :  8.55698e-11
 Reference value :  1.00000e-10
 Reference value :  1.01190e-10
 Reference value :  1.03570e-10
 Reference value :  1.08330e-10
 Reference value :  1.17850e-10
 Reference value :  1.36890e-10
 Reference value :  1.74970e-10
 Reference value :  2.51130e-10
 Reference value :  4.03166e-10
 Reference value :  5.63608e-10
 Reference value :  8.28047e-10
 Reference value :  1.17698e-09
 Reference value :  1.60168e-09
 Reference value :  2.24198e-09
 Reference value :  2.90362e-09
 Reference value :  3.97710e-09
 Reference value :  4.79838e-09
 Reference value :  5.66959e-09
 Reference value :  6.89719e-09
 Reference value :  8.07684e-09
 Reference value :  9.43991e-09
 Reference value :  1.03330e-08
 Reference value :  1.11588e-08
 Reference value :  1.20844e-08
 Reference value :  1.30866e-08
 Reference value :  1.50911e-08
 Reference value :  1.78074e-08
 Reference value :  2.17261e-08
 Reference value :  2.65161e-08
 Reference value :  3.01640e-08
 Reference value :  3.39599e-08
 Reference value :  3.70953e-08
 Reference value :  4.04431e-08
 Reference value :  4.49571e-08
 Reference value :  5.16331e-08
 Reference value :  6.23330e-08
 Reference value :  8.13367e-08
 Reference value :  1.17150e-07
 Reference value :  1.79358e-07
 Reference value :  2.50100e-07
 Reference value :  2.50110e-07
 Reference value :  2.50130e-07
 Reference value :  2.50170e-07
 Reference value :  2.50200e-07
 Reference value :  2.50201e-07
 Reference value :  2.50202e-07
 Reference value :  2.50204e-07
 Reference value :  2.50208e-07
 Reference value :  2.50216e-07
 Reference value :  2.50233e-07
 Reference value :  2.50267e-07
 Reference value :  2.50334e-07
 Reference value :  2.50416e-07
 Reference value :  2.50578e-07
 Reference value :  2.50740e-07
 Reference value :  2.51064e-07
 Reference value :  2.51433e-07
 Reference value :  2.52000e-07
 Reference value :  2.52605e-07
 Reference value :  2.53305e-07
 Reference value :  2.54251e-07
 Reference value :  2.55267e-07
 Reference value :  2.56209e-07
 Reference value :  2.57137e-07
 Reference value :  2.58161e-07
 Reference value :  2.59137e-07
 Reference value :  2.60806e-07
 Reference value :  2.63151e-07
 Reference value :  2.65566e-07
 Reference value :  2.69724e-07
 Reference value :  2.75757e-07
 Reference value :  2.87822e-07
 Reference value :  3.11952e-07
 Reference value :  3.56894e-07
 Reference value :  4.46779e-07
 Reference value :  5.00000e-07
 Reference value :  5.00010e-07
 Reference value :  5.00030e-07
 Reference value :  5.00070e-07
 Reference value :  5.00100e-07
 Reference value :  5.00104e-07
 Reference value :  5.00113e-07
 Reference value :  5.00130e-07
 Reference value :  5.00164e-07
 Reference value :  5.00231e-07
 Reference value :  5.00367e-07
 Reference value :  5.00555e-07
 Reference value :  5.00931e-07
 Reference value :  5.01441e-07
 Reference value :  5.01988e-07
 Reference value :  5.02572e-07
 Reference value :  5.03299e-07
 Reference value :  5.03988e-07
 Reference value :  5.04868e-07
 Reference value :  5.05732e-07
 Reference value :  5.06712e-07
 Reference value :  5.07962e-07
 Reference value :  5.09473e-07
 Reference value :  5.11506e-07
 Reference value :  5.13937e-07
 Reference value :  5.15835e-07
 Reference value :  5.17886e-07
 Reference value :  5.20499e-07
 Reference value :  5.23122e-07
 Reference value :  5.25907e-07
 Reference value :  5.31216e-07
 Reference value :  5.38401e-07
 Reference value :  5.48666e-07
 Reference value :  5.69196e-07
 Reference value :  5.99927e-07
 Reference value :  6.61388e-07
 Reference value :  7.50100e-07
 Reference value :  7.50110e-07
 Reference value :  7.50130e-07
 Reference value :  7.50170e-07
 Reference value :  7.50200e-07
 Reference value :  7.50201e-07
 Reference value :  7.50202e-07
 Reference value :  7.50205e-07
 Reference value :  7.50211e-07
 Reference value :  7.50223e-07
 Reference value :  7.50247e-07
 Reference value :  7.50295e-07
 Reference value :  7.50390e-07
 Reference value :  7.50580e-07
 Reference value :  7.50956e-07
 Reference value :  7.51478e-07
 Reference value :  7.52136e-07
 Reference value :  7.52787e-07
 Reference value :  7.53536e-07
 Reference value :  7.54575e-07
 Reference value :  7.55319e-07
 Reference value :  7.56167e-07
 Reference value :  7.56918e-07
 Reference value :  7.57752e-07
 Reference value :  7.58784e-07
 Reference value :  7.59912e-07
 Reference value :  7.62169e-07
 Reference value :  7.64635e-07
 Reference value :  7.68698e-07
 Reference value :  7.74006e-07
 Reference value :  7.84623e-07
 Reference value :  8.05856e-07
 Reference value :  8.48322e-07
 Reference value :  9.33255e-07
 Reference value :  1.00000e-06
 Reference value :  1.00001e-06
 Reference value :  1.00003e-06
 Reference value :  1.00007e-06
 Reference value :  1.00010e-06
 Reference value :  1.00010e-06
 Reference value :  1.00011e-06
 Reference value :  1.00013e-06
 Reference value :  1.00016e-06
 Reference value :  1.00023e-06
 Reference value :  1.00037e-06
 Reference value :  1.00055e-06
 Reference value :  1.00093e-06
 Reference value :  1.00144e-06
 Reference value :  1.00198e-06
 Reference value :  1.00256e-06
 Reference value :  1.00321e-06
 Reference value :  1.00388e-06
 Reference value :  1.00467e-06
 Reference value :  1.00549e-06
 Reference value :  1.00635e-06
 Reference value :  1.00731e-06
 Reference value :  1.00811e-06
 Reference value :  1.00905e-06
 Reference value :  1.00998e-06
 Reference value :  1.01119e-06
 Reference value :  1.01294e-06
 Reference value :  1.01554e-06
 Reference value :  1.01799e-06
 Reference value :  1.02017e-06
 Reference value :  1.02200e-06
 Reference value :  1.02397e-06
 Reference value :  1.02579e-06
 Reference value :  1.02762e-06
 Reference value :  1.02996e-06
 Reference value :  1.03217e-06
 Reference value :  1.03521e-06
 Reference value :  1.03941e-06
 Reference value :  1.04517e-06
 Reference value :  1.05440e-06
 Reference value :  1.06831e-06
 Reference value :  1.09078e-06
 Reference value :  1.12710e-06
 Reference value :  1.18568e-06
 Reference value :  1.25010e-06
 Reference value :  1.25011e-06
 Reference value :  1.25013e-06
 Reference value :  1.25017e-06
 Reference value :  1.25020e-06
 Reference value :  1.25020e-06
 Reference value :  1.25020e-06
 Reference value :  1.25021e-06
 Reference value :  1.25021e-06
 Reference value :  1.25022e-06
 Reference value :  1.25025e-06
 Reference value :  1.25029e-06
 Reference value :  1.25039e-06
 Reference value :  1.25058e-06
 Reference value :  1.25091e-06
 Reference value :  1.25146e-06
 Reference value :  1.25208e-06
 Reference value :  1.25276e-06
 Reference value :  1.25349e-06
 Reference value :  1.25452e-06
 Reference value :  1.25527e-06
 Reference value :  1.25613e-06
 Reference value :  1.25702e-06
 Reference value :  1.25795e-06
 Reference value :  1.25925e-06
 Reference value :  1.26108e-06
 Reference value :  1.26327e-06
 Reference value :  1.26648e-06
 Reference value :  1.27075e-06
 Reference value :  1.27929e-06
 Reference value :  1.28916e-06
 Reference value :  1.29956e-06
 Reference value :  1.30964e-06
 Reference value :  1.31984e-06
 Reference value :  1.32812e-06
 Reference value :  1.33622e-06
 Reference value :  1.34366e-06
 Reference value :  1.35003e-06
 Reference value :  1.35707e-06
 Reference value :  1.37116e-06
 Reference value :  1.39655e-06
 Reference value :  1.44153e-06
 Reference value :  1.50000e-06
 Reference value :  1.50001e-06
 Reference value :  1.50003e-06
 Reference value :  1.50007e-06
 Reference value :  1.50010e-06
 Reference value :  1.50010e-06
 Reference value :  1.50011e-06
 Reference value :  1.50013e-06
 Reference value :  1.50016e-06
 Reference value :  1.50023e-06
 Reference value :  1.50037e-06
 Reference value :  1.50054e-06
 Reference value :  1.50090e-06
 Reference value :  1.50141e-06
 Reference value :  1.50196e-06
 Reference value :  1.50251e-06
 Reference value :  1.50321e-06
 Reference value :  1.50385e-06
 Reference value :  1.50462e-06
 Reference value :  1.50544e-06
 Reference value :  1.50635e-06
 Reference value :  1.50757e-06
 Reference value :  1.50879e-06
 Reference value :  1.51013e-06
 Reference value :  1.51163e-06
 Reference value :  1.51310e-06
 Reference value :  1.51460e-06
 Reference value :  1.51619e-06
 Reference value :  1.51783e-06
 Reference value :  1.51965e-06
 Reference value :  1.52328e-06
 Reference value :  1.53055e-06
 Reference value :  1.54285e-06
 Reference value :  1.56745e-06
 Reference value :  1.61666e-06
 Reference value :  1.71507e-06
 Reference value :  1.75010e-06
 Reference value :  1.75011e-06
 Reference value :  1.75013e-06
 Reference value :  1.75017e-06
 Reference value :  1.75020e-06
 Reference value :  1.75020e-06
 Reference value :  1.75020e-06
 Reference value :  1.75021e-06
 Reference value :  1.75021e-06
 Reference value :  1.75022e-06
 Reference value :  1.75025e-06
 Reference value :  1.75029e-06
 Reference value :  1.75039e-06
 Reference value :  1.75058e-06
 Reference value :  1.75091e-06
 Reference value :  1.75146e-06
 Reference value :  1.75208e-06
 Reference value :  1.75275e-06
 Reference value :  1.75348e-06
 Reference value :  1.75451e-06
 Reference value :  1.75525e-06
 Reference value :  1.75610e-06
 Reference value :  1.75684e-06
 Reference value :  1.75767e-06
 Reference value :  1.75868e-06
 Reference value :  1.75980e-06
 Reference value :  1.76095e-06
 Reference value :  1.76261e-06
 Reference value :  1.76449e-06
 Reference value :  1.76701e-06
 Reference value :  1.77024e-06
 Reference value :  1.77489e-06
 Reference value :  1.78418e-06
 Reference value :  1.80078e-06
 Reference value :  1.83399e-06
 Reference value :  1.90040e-06
 Reference value :  2.00000e-06
 Reference value :  2.00001e-06
 Reference value :  2.00003e-06
 Reference value :  2.00007e-06
 Reference value :  2.00010e-06
 Reference value :  2.00010e-06
 Reference value :  2.00011e-06
 Reference value :  2.00013e-06
 Reference value :  2.00016e-06
 Reference value :  2.00023e-06
 Reference value :  2.00037e-06
 Reference value :  2.00054e-06
 Reference value :  2.00090e-06
 Reference value :  2.00141e-06
 Reference value :  2.00196e-06
 Reference value :  2.00255e-06
 Reference value :  2.00319e-06
 Reference value :  2.00387e-06
 Reference value :  2.00463e-06
 Reference value :  2.00544e-06
 Reference value :  2.00621e-06
 Reference value :  2.00702e-06
 Reference value :  2.00787e-06
 Reference value :  2.00875e-06
 Reference value :  2.00966e-06
 Reference value :  2.01103e-06
 Reference value :  2.01234e-06
 Reference value :  2.01426e-06
 Reference value :  2.01622e-06
 Reference value :  2.01808e-06
 Reference value :  2.02011e-06
 Reference value :  2.02175e-06
 Reference value :  2.02354e-06
 Reference value :  2.02526e-06
 Reference value :  2.02703e-06
 Reference value :  2.02922e-06
 Reference value :  2.03121e-06
 Reference value :  2.03441e-06
 Reference value :  2.03849e-06
 Reference value :  2.04654e-06
 Reference value :  2.05417e-06
 Reference value :  2.06122e-06
 Reference value :  2.06569e-06
 Reference value :  2.06974e-06
 Reference value :  2.07430e-06
 Reference value :  2.07855e-06
 Reference value :  2.08451e-06
 Reference value :  2.09241e-06
 Reference value :  2.10245e-06
 Reference value :  2.11705e-06
 Reference value :  2.13657e-06
 Reference value :  2.16442e-06
 Reference value :  2.20381e-06
 Reference value :  2.25010e-06
 Reference value :  2.25011e-06
 Reference value :  2.25013e-06
 Reference value :  2.25017e-06
 Reference value :  2.25020e-06
 Reference value :  2.25020e-06
 Reference value :  2.25020e-06
 Reference value :  2.25021e-06
 Reference value :  2.25021e-06
 Reference value :  2.25022e-06
 Reference value :  2.25025e-06
 Reference value :  2.25030e-06
 Reference value :  2.25039e-06
 Reference value :  2.25059e-06
 Reference value :  2.25093e-06
 Reference value :  2.25146e-06
 Reference value :  2.25210e-06
 Reference value :  2.25276e-06
 Reference value :  2.25350e-06
 Reference value :  2.25452e-06
 Reference value :  2.25526e-06
 Reference value :  2.25612e-06
 Reference value :  2.25700e-06
 Reference value :  2.25793e-06
 Reference value :  2.25922e-06
 Reference value :  2.26103e-06
 Reference value :  2.26322e-06
 Reference value :  2.26640e-06
 Reference value :  2.27066e-06
 Reference value :  2.27918e-06
 Reference value :  2.29622e-06
 Reference value :  2.32573e-06
 Reference value :  2.38474e-06
 Reference value :  2.44615e-06
 Reference value :  2.50000e-06
 Reference value :  2.50001e-06
 Reference value :  2.50003e-06
 Reference value :  2.50007e-06
 Reference value :  2.50010e-06
 Reference value :  2.50010e-06
 Reference value :  2.50011e-06
 Reference value :  2.50013e-06
 Reference value :  2.50016e-06
 Reference value :  2.50023e-06
 Reference value :  2.50037e-06
 Reference value :  2.50054e-06
 Reference value :  2.50090e-06
 Reference value :  2.50141e-06
 Reference value :  2.50196e-06
 Reference value :  2.50255e-06
 Reference value :  2.50319e-06
 Reference value :  2.50387e-06
 Reference value :  2.50464e-06
 Reference value :  2.50546e-06
 Reference value :  2.50637e-06
 Reference value :  2.50755e-06
 Reference value :  2.50879e-06
 Reference value :  2.51006e-06
 Reference value :  2.51146e-06
 Reference value :  2.51301e-06
 Reference value :  2.51459e-06
 Reference value :  2.51618e-06
 Reference value :  2.51785e-06
 Reference value :  2.51969e-06
 Reference value :  2.52337e-06
 Reference value :  2.53074e-06
 Reference value :  2.54380e-06
 Reference value :  2.56991e-06
 Reference value :  2.62212e-06
 Reference value :  2.72656e-06
 Reference value :  2.75010e-06
 Reference value :  2.75011e-06
 Reference value :  2.75013e-06
 Reference value :  2.75017e-06
 Reference value :  2.75020e-06
 Reference value :  2.75020e-06
 Reference value :  2.75020e-06
 Reference value :  2.75021e-06
 Reference value :  2.75021e-06
 Reference value :  2.75022e-06
 Reference value :  2.75025e-06
 Reference value :  2.75029e-06
 Reference value :  2.75039e-06
 Reference value :  2.75058e-06
 Reference value :  2.75091e-06
 Reference value :  2.75145e-06
 Reference value :  2.75208e-06
 Reference value :  2.75275e-06
 Reference value :  2.75348e-06
 Reference value :  2.75450e-06
 Reference value :  2.75524e-06
 Reference value :  2.75609e-06
 Reference value :  2.75683e-06
 Reference value :  2.75765e-06
 Reference value :  2.75866e-06
 Reference value :  2.75978e-06
 Reference value :  2.76203e-06
 Reference value :  2.76439e-06
 Reference value :  2.76837e-06
 Reference value :  2.77332e-06
 Reference value :  2.78322e-06
 Reference value :  2.80302e-06
 Reference value :  2.84224e-06
 Reference value :  2.92069e-06
 Reference value :  3.00000e-06
 Reference value :  3.00001e-06
 Reference value :  3.00003e-06
 Reference value :  3.00007e-06
 Reference value :  3.00010e-06
 Reference value :  3.00010e-06
 Reference value :  3.00011e-06
 Reference value :  3.00013e-06
 Reference value :  3.00016e-06
 Reference value :  3.00023e-06
 Reference value :  3.00037e-06
 Reference value :  3.00054e-06
 Reference value :  3.00090e-06
 Reference value :  3.00141e-06
 Reference value :  3.00196e-06
 Reference value :  3.00255e-06
 Reference value :  3.00320e-06
 Reference value :  3.00387e-06
 Reference value :  3.00463e-06
 Reference value :  3.00545e-06
 Reference value :  3.00630e-06
 Reference value :  3.00723e-06
 Reference value :  3.00809e-06
 Reference value :  3.00900e-06
 Reference value :  3.00994e-06
 Reference value :  3.01117e-06
 Reference value :  3.01285e-06
 Reference value :  3.01547e-06
 Reference value :  3.01792e-06
 Reference value :  3.02008e-06
 Reference value :  3.02179e-06
 Reference value :  3.02339e-06
 Reference value :  3.02524e-06
 Reference value :  3.02690e-06
 Reference value :  3.02882e-06
 Reference value :  3.03081e-06
 Reference value :  3.03367e-06
 Reference value :  3.03737e-06
 Reference value :  3.04399e-06
 Reference value :  3.05503e-06
 Reference value :  3.07143e-06
 Reference value :  3.09966e-06
 Reference value :  3.15239e-06
 Reference value :  3.19763e-06
 Reference value :  3.24620e-06
 Reference value :  3.25010e-06
 Reference value :  3.25011e-06
 Reference value :  3.25013e-06
 Reference value :  3.25017e-06
 Reference value :  3.25020e-06
 Reference value :  3.25020e-06
 Reference value :  3.25020e-06
 Reference value :  3.25021e-06
 Reference value :  3.25021e-06
 Reference value :  3.25022e-06
 Reference value :  3.25025e-06
 Reference value :  3.25030e-06
 Reference value :  3.25039e-06
 Reference value :  3.25059e-06
 Reference value :  3.25093e-06
 Reference value :  3.25146e-06
 Reference value :  3.25210e-06
 Reference value :  3.25276e-06
 Reference value :  3.25349e-06
 Reference value :  3.25452e-06
 Reference value :  3.25526e-06
 Reference value :  3.25612e-06
 Reference value :  3.25700e-06
 Reference value :  3.25792e-06
 Reference value :  3.25923e-06
 Reference value :  3.26101e-06
 Reference value :  3.26322e-06
 Reference value :  3.26638e-06
 Reference value :  3.27065e-06
 Reference value :  3.27921e-06
 Reference value :  3.29631e-06
 Reference value :  3.32558e-06
 Reference value :  3.38412e-06
 Reference value :  3.49459e-06
 Reference value :  3.50000e-06
 Reference value :  3.50001e-06
 Reference value :  3.50003e-06
 Reference value :  3.50007e-06
 Reference value :  3.50010e-06
 Reference value :  3.50010e-06
 Reference value :  3.50011e-06
 Reference value :  3.50013e-06
 Reference value :  3.50016e-06
 Reference value :  3.50023e-06
 Reference value :  3.50037e-06
 Reference value :  3.50054e-06
 Reference value :  3.50090e-06
 Reference value :  3.50141e-06
 Reference value :  3.50196e-06
 Reference value :  3.50255e-06
 Reference value :  3.50319e-06
 Reference value :  3.50387e-06
 Reference value :  3.50464e-06
 Reference value :  3.50546e-06
 Reference value :  3.50632e-06
 Reference value :  3.50752e-06
 Reference value :  3.50871e-06
 Reference value :  3.51001e-06
 Reference value :  3.51146e-06
 Reference value :  3.51292e-06
 Reference value :  3.51433e-06
 Reference value :  3.51582e-06
 Reference value :  3.51732e-06
 Reference value :  3.51906e-06
 Reference value :  3.52254e-06
 Reference value :  3.52872e-06
 Reference value :  3.54109e-06
 Reference value :  3.56582e-06
 Reference value :  3.61529e-06
 Reference value :  3.71422e-06
 Reference value :  3.75010e-06
 Reference value :  3.75011e-06
 Reference value :  3.75013e-06
 Reference value :  3.75017e-06
 Reference value :  3.75020e-06
 Reference value :  3.75020e-06
 Reference value :  3.75020e-06
 Reference value :  3.75021e-06
 Reference value :  3.75021e-06
 Reference value :  3.75022e-06
 Reference value :  3.75025e-06
 Reference value :  3.75029e-06
 Reference value :  3.75039e-06
 Reference value :  3.75058e-06
 Reference value :  3.75091e-06
 Reference value :  3.75145e-06
 Reference value :  3.75208e-06
 Reference value :  3.75275e-06
 Reference value :  3.75348e-06
 Reference value :  3.75450e-06
 Reference value :  3.75523e-06
 Reference value :  3.75609e-06
 Reference value :  3.75682e-06
 Reference value :  3.75765e-06
 Reference value :  3.75865e-06
 Reference value :  3.75977e-06
 Reference value :  3.76201e-06
 Reference value :  3.76437e-06
 Reference value :  3.76833e-06
 Reference value :  3.77326e-06
 Reference value :  3.78311e-06
 Reference value :  3.80281e-06
 Reference value :  3.84144e-06
 Reference value :  3.91872e-06
 Reference value :  4.00000e-06
 Reference value :  4.00001e-06
 Reference value :  4.00003e-06
 Reference value :  4.00007e-06
 Reference value :  4.00010e-06
 Reference value :  4.00010e-06
 Reference value :  4.00011e-06
 Reference value :  4.00013e-06
 Reference value :  4.00016e-06
 Reference value :  4.00023e-06
 Reference value :  4.00037e-06
 Reference value :  4.00054e-06
 Reference value :  4.00090e-06
 Reference value :  4.00141e-06
 Reference value :  4.00196e-06
 Reference value :  4.00255e-06
 Reference value :  4.00320e-06
 Reference value :  4.00387e-06
 Reference value :  4.00463e-06
 Reference value :  4.00545e-06
 Reference value :  4.00635e-06
 Reference value :  4.00728e-06
 Reference value :  4.00808e-06
 Reference value :  4.00904e-06
 Reference value :  4.00996e-06
 Reference value :  4.01119e-06
 Reference value :  4.01292e-06
 Reference value :  4.01527e-06
 Reference value :  4.01786e-06
 Reference value :  4.02004e-06
 Reference value :  4.02176e-06
 Reference value :  4.02338e-06
 Reference value :  4.02524e-06
 Reference value :  4.02693e-06
 Reference value :  4.02911e-06
 Reference value :  4.03111e-06
 Reference value :  4.03391e-06
 Reference value :  4.03762e-06
 Reference value :  4.04346e-06
 Reference value :  4.05305e-06
 Reference value :  4.06366e-06
 Reference value :  4.07355e-06
 Reference value :  4.08501e-06
 Reference value :  4.09275e-06
 Reference value :  4.10010e-06
 Reference value :  4.10920e-06
 Reference value :  4.11681e-06
 Reference value :  4.12502e-06
 Reference value :  4.13506e-06
 Reference value :  4.15049e-06
 Reference value :  4.16929e-06
 Reference value :  4.18637e-06
 Reference value :  4.19934e-06
 Reference value :  4.20668e-06
 Reference value :  4.21509e-06
 Reference value :  4.22213e-06
 Reference value :  4.22982e-06
 Reference value :  4.24520e-06
 Reference value :  4.25010e-06
 Reference value :  4.25011e-06
 Reference value :  4.25013e-06
 Reference value :  4.25017e-06
 Reference value :  4.25020e-06
 Reference value :  4.25020e-06
 Reference value :  4.25020e-06
 Reference value :  4.25021e-06
 Reference value :  4.25021e-06
 Reference value :  4.25022e-06
 Reference value :  4.25025e-06
 Reference value :  4.25029e-06
 Reference value :  4.25039e-06
 Reference value :  4.25058e-06
 Reference value :  4.25091e-06
 Reference value :  4.25145e-06
 Reference value :  4.25208e-06
 Reference value :  4.25275e-06
 Reference value :  4.25348e-06
 Reference value :  4.25449e-06
 Reference value :  4.25524e-06
 Reference value :  4.25611e-06
 Reference value :  4.25698e-06
 Reference value :  4.25790e-06
 Reference value :  4.25924e-06
 Reference value :  4.26097e-06
 Reference value :  4.26323e-06
 Reference value :  4.26631e-06
 Reference value :  4.27066e-06
 Reference value :  4.27937e-06
 Reference value :  4.29605e-06
 Reference value :  4.32525e-06
 Reference value :  4.38364e-06
 Reference value :  4.50000e-06
 Reference value :  4.50001e-06
 Reference value :  4.50003e-06
 Reference value :  4.50007e-06
 Reference value :  4.50010e-06
 Reference value :  4.50010e-06
 Reference value :  4.50011e-06
 Reference value :  4.50013e-06
 Reference value :  4.50016e-06
 Reference value :  4.50023e-06
 Reference value :  4.50037e-06
 Reference value :  4.50055e-06
 Reference value :  4.50091e-06
 Reference value :  4.50142e-06
 Reference value :  4.50197e-06
 Reference value :  4.50255e-06
 Reference value :  4.50320e-06
 Reference value :  4.50387e-06
 Reference value :  4.50464e-06
 Reference value :  4.50546e-06
 Reference value :  4.50632e-06
 Reference value :  4.50752e-06
 Reference value :  4.50872e-06
 Reference value :  4.50993e-06
 Reference value :  4.51126e-06
 Reference value :  4.51286e-06
 Reference value :  4.51435e-06
 Reference value :  4.51582e-06
 Reference value :  4.51739e-06
 Reference value :  4.51919e-06
 Reference value :  4.52242e-06
 Reference value :  4.52728e-06
 Reference value :  4.53700e-06
 Reference value :  4.55580e-06
 Reference value :  4.59256e-06
 Reference value :  4.66609e-06
 Reference value :  4.75010e-06
 Reference value :  4.75011e-06
 Reference value :  4.75013e-06
 Reference value :  4.75017e-06
 Reference value :  4.75020e-06
 Reference value :  4.75020e-06
 Reference value :  4.75020e-06
 Reference value :  4.75021e-06
 Reference value :  4.75021e-06
 Reference value :  4.75022e-06
 Reference value :  4.75025e-06
 Reference value :  4.75029e-06
 Reference value :  4.75039e-06
 Reference value :  4.75058e-06
 Reference value :  4.75091e-06
 Reference value :  4.75145e-06
 Reference value :  4.75208e-06
 Reference value :  4.75274e-06
 Reference value :  4.75347e-06
 Reference value :  4.75449e-06
 Reference value :  4.75522e-06
 Reference value :  4.75608e-06
 Reference value :  4.75682e-06
 Reference value :  4.75764e-06
 Reference value :  4.75864e-06
 Reference value :  4.75976e-06
 Reference value :  4.76198e-06
 Reference value :  4.76434e-06
 Reference value :  4.76829e-06
 Reference value :  4.77319e-06
 Reference value :  4.78297e-06
 Reference value :  4.80255e-06
 Reference value :  4.84055e-06
 Reference value :  4.91654e-06
 Reference value :  5.00000e-06
 Reference value :  5.00001e-06
 Reference value :  5.00003e-06
 Reference value :  5.00007e-06
 Reference value :  5.00010e-06
 Reference value :  5.00010e-06
 Reference value :  5.00011e-06
 Reference value :  5.00013e-06
 Reference value :  5.00016e-06
 Reference value :  5.00023e-06
 Reference value :  5.00037e-06
 Reference value :  5.00054e-06
 Reference value :  5.00090e-06
 Reference value :  5.00141e-06
 Reference value :  5.00196e-06
 Reference value :  5.00254e-06
 Reference value :  5.00320e-06
 Reference value :  5.00389e-06
 Reference value :  5.00465e-06
 Reference value :  5.00547e-06
 Reference value :  5.00635e-06
 Reference value :  5.00731e-06
 Reference value :  5.00809e-06
 Reference value :  5.00898e-06
 Reference value :  5.00996e-06
 Reference value :  5.01112e-06
 Reference value :  5.01297e-06
 Reference value :  5.01548e-06
 Reference value :  5.01798e-06
 Reference value :  5.02017e-06
 Reference value :  5.02189e-06
 Reference value :  5.02349e-06
 Reference value :  5.02507e-06
 Reference value :  5.02678e-06
 Reference value :  5.02870e-06
 Reference value :  5.03073e-06
 Reference value :  5.03339e-06
 Reference value :  5.03711e-06
 Reference value :  5.04321e-06
 Reference value :  5.04965e-06
 Reference value :  5.05663e-06
 Reference value :  5.06420e-06
 Reference value :  5.06934e-06
 Reference value :  5.07502e-06
 Reference value :  5.08226e-06
 Reference value :  5.08947e-06
 Reference value :  5.09582e-06
 Reference value :  5.10427e-06
 Reference value :  5.11403e-06
 Reference value :  5.13128e-06
 Reference value :  5.15279e-06
 Reference value :  5.18845e-06
 Reference value :  5.24854e-06
 Reference value :  5.25010e-06
 Reference value :  5.25011e-06
 Reference value :  5.25013e-06
 Reference value :  5.25017e-06
 Reference value :  5.25020e-06
 Reference value :  5.25020e-06
 Reference value :  5.25020e-06
 Reference value :  5.25021e-06
 Reference value :  5.25021e-06
 Reference value :  5.25022e-06
 Reference value :  5.25025e-06
 Reference value :  5.25030e-06
 Reference value :  5.25039e-06
 Reference value :  5.25059e-06
 Reference value :  5.25093e-06
 Reference value :  5.25146e-06
 Reference value :  5.25210e-06
 Reference value :  5.25275e-06
 Reference value :  5.25349e-06
 Reference value :  5.25451e-06
 Reference value :  5.25522e-06
 Reference value :  5.25604e-06
 Reference value :  5.25693e-06
 Reference value :  5.25785e-06
 Reference value :  5.25910e-06
 Reference value :  5.26104e-06
 Reference value :  5.26318e-06
 Reference value :  5.26634e-06
 Reference value :  5.27055e-06
 Reference value :  5.27896e-06
 Reference value :  5.29578e-06
 Reference value :  5.32459e-06
 Reference value :  5.38223e-06
 Reference value :  5.49750e-06
 Reference value :  5.50000e-06
 Reference value :  5.50001e-06
 Reference value :  5.50003e-06
 Reference value :  5.50007e-06
 Reference value :  5.50010e-06
 Reference value :  5.50010e-06
 Reference value :  5.50011e-06
 Reference value :  5.50013e-06
 Reference value :  5.50016e-06
 Reference value :  5.50023e-06
 Reference value :  5.50037e-06
 Reference value :  5.50054e-06
 Reference value :  5.50090e-06
 Reference value :  5.50141e-06
 Reference value :  5.50196e-06
 Reference value :  5.50251e-06
 Reference value :  5.50321e-06
 Reference value :  5.50385e-06
 Reference value :  5.50462e-06
 Reference value :  5.50544e-06
 Reference value :  5.50635e-06
 Reference value :  5.50757e-06
 Reference value :  5.50879e-06
 Reference value :  5.51004e-06
 Reference value :  5.51138e-06
 Reference value :  5.51301e-06
 Reference value :  5.51452e-06
 Reference value :  5.51605e-06
 Reference value :  5.51782e-06
 Reference value :  5.51979e-06
 Reference value :  5.52321e-06
 Reference value :  5.52823e-06
 Reference value :  5.53746e-06
 Reference value :  5.55443e-06
 Reference value :  5.58540e-06
 Reference value :  5.64587e-06
 Reference value :  5.75010e-06
 Reference value :  5.75011e-06
 Reference value :  5.75013e-06
 Reference value :  5.75017e-06
 Reference value :  5.75020e-06
 Reference value :  5.75020e-06
 Reference value :  5.75020e-06
 Reference value :  5.75021e-06
 Reference value :  5.75021e-06
 Reference value :  5.75022e-06
 Reference value :  5.75025e-06
 Reference value :  5.75029e-06
 Reference value :  5.75039e-06
 Reference value :  5.75058e-06
 Reference value :  5.75091e-06
 Reference value :  5.75145e-06
 Reference value :  5.75208e-06
 Reference value :  5.75274e-06
 Reference value :  5.75347e-06
 Reference value :  5.75449e-06
 Reference value :  5.75523e-06
 Reference value :  5.75609e-06
 Reference value :  5.75684e-06
 Reference value :  5.75766e-06
 Reference value :  5.75867e-06
 Reference value :  5.75978e-06
 Reference value :  5.76093e-06
 Reference value :  5.76258e-06
 Reference value :  5.76446e-06
 Reference value :  5.76697e-06
 Reference value :  5.77019e-06
 Reference value :  5.77481e-06
 Reference value :  5.78405e-06
 Reference value :  5.80043e-06
 Reference value :  5.83317e-06
 Reference value :  5.89866e-06
 Reference value :  6.00000e-06
 Reference value :  6.00001e-06
 Reference value :  6.00003e-06
 Reference value :  6.00007e-06
 Reference value :  6.00010e-06
 Reference value :  6.00010e-06
 Reference value :  6.00011e-06
 Reference value :  6.00013e-06
 Reference value :  6.00016e-06
 Reference value :  6.00023e-06
 Reference value :  6.00037e-06
 Reference value :  6.00054e-06
 Reference value :  6.00090e-06
 Reference value :  6.00141e-06
 Reference value :  6.00196e-06
 Reference value :  6.00255e-06
 Reference value :  6.00319e-06
 Reference value :  6.00387e-06
 Reference value :  6.00463e-06
 Reference value :  6.00544e-06
 Reference value :  6.00629e-06
 Reference value :  6.00708e-06
 Reference value :  6.00782e-06
 Reference value :  6.00867e-06
 Reference value :  6.00957e-06
 Reference value :  6.01070e-06
 Reference value :  6.01224e-06
 Reference value :  6.01382e-06
 Reference value :  6.01536e-06
 Reference value :  6.01717e-06
 Reference value :  6.01884e-06
 Reference value :  6.02054e-06
 Reference value :  6.02178e-06
 Reference value :  6.02292e-06
 Reference value :  6.02417e-06
 Reference value :  6.02558e-06
 Reference value :  6.02687e-06
 Reference value :  6.02845e-06
 Reference value :  6.03076e-06
 Reference value :  6.03303e-06
 Reference value :  6.03461e-06
 Reference value :  6.03642e-06
 Reference value :  6.03821e-06
 Reference value :  6.04034e-06
 Reference value :  6.04368e-06
 Reference value :  6.04775e-06
 Reference value :  6.05434e-06
 Reference value :  6.06388e-06
 Reference value :  6.07700e-06
 Reference value :  6.09697e-06
 Reference value :  6.13328e-06
 Reference value :  6.19106e-06
 Reference value :  6.25010e-06
 Reference value :  6.25011e-06
 Reference value :  6.25013e-06
 Reference value :  6.25017e-06
 Reference value :  6.25020e-06
 Reference value :  6.25020e-06
 Reference value :  6.25020e-06
 Reference value :  6.25021e-06
 Reference value :  6.25021e-06
 Reference value :  6.25022e-06
 Reference value :  6.25025e-06
 Reference value :  6.25029e-06
 Reference value :  6.25039e-06
 Reference value :  6.25058e-06
 Reference value :  6.25092e-06
 Reference value :  6.25145e-06
 Reference value :  6.25208e-06
 Reference value :  6.25275e-06
 Reference value :  6.25348e-06
 Reference value :  6.25450e-06
 Reference value :  6.25525e-06
 Reference value :  6.25611e-06
 Reference value :  6.25698e-06
 Reference value :  6.25790e-06
 Reference value :  6.25922e-06
 Reference value :  6.26095e-06
 Reference value :  6.26319e-06
 Reference value :  6.26628e-06
 Reference value :  6.27059e-06
 Reference value :  6.27921e-06
 Reference value :  6.29573e-06
 Reference value :  6.32445e-06
 Reference value :  6.38189e-06
 Reference value :  6.49675e-06
 Reference value :  6.50000e-06
 Reference value :  6.50001e-06
 Reference value :  6.50003e-06
 Reference value :  6.50007e-06
 Reference value :  6.50010e-06
 Reference value :  6.50010e-06
 Reference value :  6.50011e-06
 Reference value :  6.50013e-06
 Reference value :  6.50016e-06
 Reference value :  6.50023e-06
 Reference value :  6.50037e-06
 Reference value :  6.50054e-06
 Reference value :  6.50090e-06
 Reference value :  6.50141e-06
 Reference value :  6.50196e-06
 Reference value :  6.50255e-06
 Reference value :  6.50319e-06
 Reference value :  6.50387e-06
 Reference value :  6.50464e-06
 Reference value :  6.50546e-06
 Reference value :  6.50632e-06
 Reference value :  6.50752e-06
 Reference value :  6.50872e-06
 Reference value :  6.51002e-06
 Reference value :  6.51147e-06
 Reference value :  6.51293e-06
 Reference value :  6.51434e-06
 Reference value :  6.51582e-06
 Reference value :  6.51744e-06
 Reference value :  6.51928e-06
 Reference value :  6.52263e-06
 Reference value :  6.52755e-06
 Reference value :  6.53720e-06
 Reference value :  6.55538e-06
 Reference value :  6.58981e-06
 Reference value :  6.65866e-06
 Reference value :  6.75010e-06
 Reference value :  6.75011e-06
 Reference value :  6.75013e-06
 Reference value :  6.75017e-06
 Reference value :  6.75020e-06
 Reference value :  6.75020e-06
 Reference value :  6.75020e-06
 Reference value :  6.75021e-06
 Reference value :  6.75021e-06
 Reference value :  6.75022e-06
 Reference value :  6.75025e-06
 Reference value :  6.75029e-06
 Reference value :  6.75039e-06
 Reference value :  6.75058e-06
 Reference value :  6.75091e-06
 Reference value :  6.75145e-06
 Reference value :  6.75208e-06
 Reference value :  6.75275e-06
 Reference value :  6.75348e-06
 Reference value :  6.75450e-06
 Reference value :  6.75523e-06
 Reference value :  6.75609e-06
 Reference value :  6.75683e-06
 Reference value :  6.75765e-06
 Reference value :  6.75866e-06
 Reference value :  6.75977e-06
 Reference value :  6.76201e-06
 Reference value :  6.76437e-06
 Reference value :  6.76834e-06
 Reference value :  6.77328e-06
 Reference value :  6.78315e-06
 Reference value :  6.80289e-06
 Reference value :  6.84101e-06
 Reference value :  6.91725e-06
 Reference value :  7.00000e-06
 Reference value :  7.00001e-06
 Reference value :  7.00003e-06
 Reference value :  7.00007e-06
 Reference value :  7.00010e-06
 Reference value :  7.00010e-06
 Reference value :  7.00011e-06
 Reference value :  7.00013e-06
 Reference value :  7.00016e-06
 Reference value :  7.00023e-06
 Reference value :  7.00037e-06
 Reference value :  7.00054e-06
 Reference value :  7.00090e-06
 Reference value :  7.00141e-06
 Reference value :  7.00196e-06
 Reference value :  7.00255e-06
 Reference value :  7.00320e-06
 Reference value :  7.00387e-06
 Reference value :  7.00463e-06
 Reference value :  7.00545e-06
 Reference value :  7.00635e-06
 Reference value :  7.00728e-06
 Reference value :  7.00805e-06
 Reference value :  7.00893e-06
 Reference value :  7.00992e-06
 Reference value :  7.01107e-06
 Reference value :  7.01294e-06
 Reference value :  7.01544e-06
 Reference value :  7.01821e-06
 Reference value :  7.02044e-06
 Reference value :  7.02228e-06
 Reference value :  7.02402e-06
 Reference value :  7.02570e-06
 Reference value :  7.02746e-06
 Reference value :  7.02945e-06
 Reference value :  7.03162e-06
 Reference value :  7.03421e-06
 Reference value :  7.03806e-06
 Reference value :  7.04339e-06
 Reference value :  7.04970e-06
 Reference value :  7.05818e-06
 Reference value :  7.07120e-06
 Reference value :  7.08525e-06
 Reference value :  7.10802e-06
 Reference value :  7.13811e-06
 Reference value :  7.17288e-06
 Reference value :  7.21539e-06
 Reference value :  7.25010e-06
 Reference value :  7.25011e-06
 Reference value :  7.25013e-06
 Reference value :  7.25017e-06
 Reference value :  7.25020e-06
 Reference value :  7.25020e-06
 Reference value :  7.25020e-06
 Reference value :  7.25021e-06
 Reference value :  7.25021e-06
 Reference value :  7.25022e-06
 Reference value :  7.25025e-06
 Reference value :  7.25030e-06
 Reference value :  7.25039e-06
 Reference value :  7.25059e-06
 Reference value :  7.25093e-06
 Reference value :  7.25146e-06
 Reference value :  7.25211e-06
 Reference value :  7.25276e-06
 Reference value :  7.25350e-06
 Reference value :  7.25452e-06
 Reference value :  7.25525e-06
 Reference value :  7.25610e-06
 Reference value :  7.25698e-06
 Reference value :  7.25790e-06
 Reference value :  7.25917e-06
 Reference value :  7.26105e-06
 Reference value :  7.26321e-06
 Reference value :  7.26641e-06
 Reference value :  7.27063e-06
 Reference value :  7.27908e-06
 Reference value :  7.29598e-06
 Reference value :  7.32465e-06
 Reference value :  7.38198e-06
 Reference value :  7.48962e-06
 Reference value :  7.50000e-06
 Reference value :  7.50001e-06
 Reference value :  7.50003e-06
 Reference value :  7.50007e-06
 Reference value :  7.50010e-06
 Reference value :  7.50010e-06
 Reference value :  7.50011e-06
 Reference value :  7.50013e-06
 Reference value :  7.50016e-06
 Reference value :  7.50023e-06
 Reference value :  7.50037e-06
 Reference value :  7.50055e-06
 Reference value :  7.50090e-06
 Reference value :  7.50141e-06
 Reference value :  7.50195e-06
 Reference value :  7.50253e-06
 Reference value :  7.50318e-06
 Reference value :  7.50385e-06
 Reference value :  7.50463e-06
 Reference value :  7.50545e-06
 Reference value :  7.50636e-06
 Reference value :  7.50756e-06
 Reference value :  7.50880e-06
 Reference value :  7.51011e-06
 Reference value :  7.51156e-06
 Reference value :  7.51305e-06
 Reference value :  7.51444e-06
 Reference value :  7.51592e-06
 Reference value :  7.51744e-06
 Reference value :  7.51919e-06
 Reference value :  7.52262e-06
 Reference value :  7.52761e-06
 Reference value :  7.53761e-06
 Reference value :  7.55760e-06
 Reference value :  7.59741e-06
 Reference value :  7.67702e-06
 Reference value :  7.75010e-06
 Reference value :  7.75011e-06
 Reference value :  7.75013e-06
 Reference value :  7.75017e-06
 Reference value :  7.75020e-06
 Reference value :  7.75020e-06
 Reference value :  7.75020e-06
 Reference value :  7.75021e-06
 Reference value :  7.75021e-06
 Reference value :  7.75022e-06
 Reference value :  7.75025e-06
 Reference value :  7.75029e-06
 Reference value :  7.75039e-06
 Reference value :  7.75058e-06
 Reference value :  7.75092e-06
 Reference value :  7.75145e-06
 Reference value :  7.75209e-06
 Reference value :  7.75275e-06
 Reference value :  7.75348e-06
 Reference value :  7.75450e-06
 Reference value :  7.75522e-06
 Reference value :  7.75606e-06
 Reference value :  7.75679e-06
 Reference value :  7.75761e-06
 Reference value :  7.75861e-06
 Reference value :  7.75973e-06
 Reference value :  7.76197e-06
 Reference value :  7.76433e-06
 Reference value :  7.76831e-06
 Reference value :  7.77326e-06
 Reference value :  7.78315e-06
 Reference value :  7.80294e-06
 Reference value :  7.84252e-06
 Reference value :  7.92167e-06
 Reference value :  8.00000e-06
 Reference value :  8.00001e-06
 Reference value :  8.00003e-06
 Reference value :  8.00007e-06
 Reference value :  8.00010e-06
 Reference value :  8.00010e-06
 Reference value :  8.00011e-06
 Reference value :  8.00013e-06
 Reference value :  8.00016e-06
 Reference value :  8.00023e-06
 Reference value :  8.00037e-06
 Reference value :  8.00055e-06
 Reference value :  8.00090e-06
 Reference value :  8.00141e-06
 Reference value :  8.00195e-06
 Reference value :  8.00253e-06
 Reference value :  8.00318e-06
 Reference value :  8.00386e-06
 Reference value :  8.00462e-06
 Reference value :  8.00544e-06
 Reference value :  8.00628e-06
 Reference value :  8.00725e-06
 Reference value :  8.00803e-06
 Reference value :  8.00894e-06
 Reference value :  8.00988e-06
 Reference value :  8.01105e-06
 Reference value :  8.01283e-06
 Reference value :  8.01565e-06
 Reference value :  8.01864e-06
 Reference value :  8.02101e-06
 Reference value :  8.02361e-06
 Reference value :  8.02686e-06
 Reference value :  8.03030e-06
 Reference value :  8.03572e-06
 Reference value :  8.04284e-06
 Reference value :  8.05382e-06
 Reference value :  8.07097e-06
 Reference value :  8.09890e-06
 Reference value :  8.14779e-06
 Reference value :  8.22781e-06
 Reference value :  8.25010e-06
 Reference value :  8.25011e-06
 Reference value :  8.25013e-06
 Reference value :  8.25017e-06
 Reference value :  8.25020e-06
 Reference value :  8.25020e-06
 Reference value :  8.25020e-06
 Reference value :  8.25021e-06
 Reference value :  8.25021e-06
 Reference value :  8.25022e-06
 Reference value :  8.25025e-06
 Reference value :  8.25029e-06
 Reference value :  8.25039e-06
 Reference value :  8.25058e-06
 Reference value :  8.25096e-06
 Reference value :  8.25147e-06
 Reference value :  8.25214e-06
 Reference value :  8.25278e-06
 Reference value :  8.25353e-06
 Reference value :  8.25455e-06
 Reference value :  8.25555e-06
 Reference value :  8.25694e-06
 Reference value :  8.25849e-06
 Reference value :  8.25999e-06
 Reference value :  8.26246e-06
 Reference value :  8.26513e-06
 Reference value :  8.26940e-06
 Reference value :  8.27587e-06
 Reference value :  8.28881e-06
 Reference value :  8.31470e-06
 Reference value :  8.36646e-06
 Reference value :  8.46999e-06
 Reference value :  8.50000e-06
 Reference value :  8.50000e-06
 Reference value :  8.50000e-06
 Reference value :  8.50000e-06
 Reference value :  8.50000e-06
 Reference value :  8.50000e-06
 Reference value :  8.50000e-06
 Reference value :  8.50000e-06
 Reference value :  8.50000e-06
 Reference value :  8.50000e-06
 Reference value :  8.50001e-06
 Reference value :  8.50001e-06
 Reference value :  8.50002e-06
 Reference value :  8.50004e-06
 Reference value :  8.50008e-06
 Reference value :  8.50010e-06
 Reference value :  8.50010e-06
 Reference value :  8.50011e-06
 Reference value :  8.50012e-06
 Reference value :  8.50014e-06
 Reference value :  8.50018e-06
 Reference value :  8.50026e-06
 Reference value :  8.50043e-06
 Reference value :  8.50077e-06
 Reference value :  8.50128e-06
 Reference value :  8.50204e-06
 Reference value :  8.50282e-06
 Reference value :  8.50353e-06
 Reference value :  8.50429e-06
 Reference value :  8.50506e-06
 Reference value :  8.50587e-06
 Reference value :  8.50695e-06
 Reference value :  8.50809e-06
 Reference value :  8.51036e-06
 Reference value :  8.51180e-06
 Reference value :  8.51328e-06
 Reference value :  8.51497e-06
 Reference value :  8.51684e-06
 Reference value :  8.51968e-06
 Reference value :  8.52317e-06
 Reference value :  8.52790e-06
 Reference value :  8.53347e-06
 Reference value :  8.53736e-06
 Reference value :  8.54068e-06
 Reference value :  8.54347e-06
 Reference value :  8.54650e-06
 Reference value :  8.54879e-06
 Reference value :  8.55104e-06
 Reference value :  8.55301e-06
 Reference value :  8.55511e-06
 Reference value :  8.55789e-06
 Reference value :  8.56109e-06
 Reference value :  8.56408e-06
 Reference value :  8.56933e-06
 Reference value :  8.57479e-06
 Reference value :  8.58570e-06
 Reference value :  8.59981e-06
 Reference value :  8.61265e-06
 Reference value :  8.62919e-06
 Reference value :  8.65118e-06
 Reference value :  8.67437e-06
 Reference value :  8.70645e-06
 Reference value :  8.74709e-06
 Reference value :  8.75010e-06
 Reference value :  8.75011e-06
 Reference value :  8.75013e-06
 Reference value :  8.75017e-06
 Reference value :  8.75020e-06
 Reference value :  8.75020e-06
 Reference value :  8.75020e-06
 Reference value :  8.75021e-06
 Reference value :  8.75021e-06
 Reference value :  8.75022e-06
 Reference value :  8.75025e-06
 Reference value :  8.75029e-06
 Reference value :  8.75039e-06
 Reference value :  8.75058e-06
 Reference value :  8.75096e-06
 Reference value :  8.75147e-06
 Reference value :  8.75214e-06
 Reference value :  8.75279e-06
 Reference value :  8.75352e-06
 Reference value :  8.75444e-06
 Reference value :  8.75520e-06
 Reference value :  8.75607e-06
 Reference value :  8.75689e-06
 Reference value :  8.75776e-06
 Reference value :  8.75916e-06
 Reference value :  8.76059e-06
 Reference value :  8.76300e-06
 Reference value :  8.76578e-06
 Reference value :  8.77024e-06
 Reference value :  8.77776e-06
 Reference value :  8.79279e-06
 Reference value :  8.81980e-06
 Reference value :  8.87383e-06
 Reference value :  8.97036e-06
 Reference value :  9.00000e-06
 Reference value :  9.00001e-06
 Reference value :  9.00003e-06
 Reference value :  9.00007e-06
 Reference value :  9.00010e-06
 Reference value :  9.00010e-06
 Reference value :  9.00011e-06
 Reference value :  9.00013e-06
 Reference value :  9.00016e-06
 Reference value :  9.00023e-06
 Reference value :  9.00037e-06
 Reference value :  9.00055e-06
 Reference value :  9.00093e-06
 Reference value :  9.00144e-06
 Reference value :  9.00198e-06
 Reference value :  9.00257e-06
 Reference value :  9.00330e-06
 Reference value :  9.00398e-06
 Reference value :  9.00491e-06
 Reference value :  9.00574e-06
 Reference value :  9.00672e-06
 Reference value :  9.00803e-06
 Reference value :  9.00939e-06
 Reference value :  9.01136e-06
 Reference value :  9.01385e-06
 Reference value :  9.01571e-06
 Reference value :  9.01776e-06
 Reference value :  9.02016e-06
 Reference value :  9.02259e-06
 Reference value :  9.02528e-06
 Reference value :  9.03024e-06
 Reference value :  9.03670e-06
 Reference value :  9.04630e-06
 Reference value :  9.06550e-06
 Reference value :  9.09306e-06
 Reference value :  9.14818e-06
 Reference value :  9.24831e-06
 Reference value :  9.25010e-06
 Reference value :  9.25011e-06
 Reference value :  9.25013e-06
 Reference value :  9.25017e-06
 Reference value :  9.25020e-06
 Reference value :  9.25020e-06
 Reference value :  9.25020e-06
 Reference value :  9.25021e-06
 Reference value :  9.25021e-06
 Reference value :  9.25022e-06
 Reference value :  9.25025e-06
 Reference value :  9.25030e-06
 Reference value :  9.25039e-06
 Reference value :  9.25059e-06
 Reference value :  9.25097e-06
 Reference value :  9.25149e-06
 Reference value :  9.25216e-06
 Reference value :  9.25280e-06
 Reference value :  9.25356e-06
 Reference value :  9.25461e-06
 Reference value :  9.25534e-06
 Reference value :  9.25618e-06
 Reference value :  9.25694e-06
 Reference value :  9.25777e-06
 Reference value :  9.25886e-06
 Reference value :  9.26006e-06
 Reference value :  9.26246e-06
 Reference value :  9.26496e-06
 Reference value :  9.26923e-06
 Reference value :  9.27492e-06
 Reference value :  9.28630e-06
 Reference value :  9.30905e-06
 Reference value :  9.35457e-06
 Reference value :  9.44560e-06
 Reference value :  9.50000e-06
 Reference value :  9.50001e-06
 Reference value :  9.50003e-06
 Reference value :  9.50007e-06
 Reference value :  9.50010e-06
 Reference value :  9.50010e-06
 Reference value :  9.50011e-06
 Reference value :  9.50013e-06
 Reference value :  9.50016e-06
 Reference value :  9.50023e-06
 Reference value :  9.50037e-06
 Reference value :  9.50055e-06
 Reference value :  9.50093e-06
 Reference value :  9.50144e-06
 Reference value :  9.50198e-06
 Reference value :  9.50256e-06
 Reference value :  9.50321e-06
 Reference value :  9.50388e-06
 Reference value :  9.50467e-06
 Reference value :  9.50549e-06
 Reference value :  9.50635e-06
 Reference value :  9.50731e-06
 Reference value :  9.50811e-06
 Reference value :  9.50905e-06
 Reference value :  9.50999e-06
 Reference value :  9.51120e-06
 Reference value :  9.51295e-06
 Reference value :  9.51555e-06
 Reference value :  9.51800e-06
 Reference value :  9.52018e-06
 Reference value :  9.52200e-06
 Reference value :  9.52397e-06
 Reference value :  9.52579e-06
 Reference value :  9.52762e-06
 Reference value :  9.52995e-06
 Reference value :  9.53216e-06
 Reference value :  9.53519e-06
 Reference value :  9.53937e-06
 Reference value :  9.54511e-06
 Reference value :  9.55428e-06
 Reference value :  9.56811e-06
 Reference value :  9.59042e-06
 Reference value :  9.62647e-06
 Reference value :  9.68458e-06
 Reference value :  9.75010e-06
 Reference value :  9.75011e-06
 Reference value :  9.75013e-06
 Reference value :  9.75017e-06
 Reference value :  9.75020e-06
 Reference value :  9.75020e-06
 Reference value :  9.75020e-06
 Reference value :  9.75021e-06
 Reference value :  9.75021e-06
 Reference value :  9.75022e-06
 Reference value :  9.75025e-06
 Reference value :  9.75029e-06
 Reference value :  9.75039e-06
 Reference value :  9.75058e-06
 Reference value :  9.75091e-06
 Reference value :  9.75146e-06
 Reference value :  9.75209e-06
 Reference value :  9.75276e-06
 Reference value :  9.75349e-06
 Reference value :  9.75452e-06
 Reference value :  9.75527e-06
 Reference value :  9.75613e-06
 Reference value :  9.75702e-06
 Reference value :  9.75795e-06
 Reference value :  9.75925e-06
 Reference value :  9.76108e-06
 Reference value :  9.76326e-06
 Reference value :  9.76649e-06
 Reference value :  9.77076e-06
 Reference value :  9.77931e-06
 Reference value :  9.78978e-06
 Reference value :  9.79925e-06
 Reference value :  9.80954e-06
 Reference value :  9.81665e-06
 Reference value :  9.82342e-06
 Reference value :  9.83059e-06
 Reference value :  9.83765e-06
 Reference value :  9.84549e-06
 Reference value :  9.85182e-06
 Reference value :  9.85873e-06
 Reference value :  9.87167e-06
 Reference value :  9.88554e-06
 Reference value :  9.90826e-06
 Reference value :  9.94118e-06
 Reference value :  9.99277e-06
 Reference value :  1.00000e-05
 Reference value :  1.00000e-05
 Reference value :  1.00000e-05
 Reference value :  1.00001e-05
 Reference value :  1.00001e-05
 Reference value :  1.00001e-05
 Reference value :  1.00001e-05
 Reference value :  1.00001e-05
 Reference value :  1.00002e-05
 Reference value :  1.00002e-05
 Reference value :  1.00004e-05
 Reference value :  1.00005e-05
 Reference value :  1.00009e-05
 Reference value :  1.00014e-05
 Reference value :  1.00020e-05
 Reference value :  1.00025e-05
 Reference value :  1.00032e-05
 Reference value :  1.00038e-05
 Reference value :  1.00046e-05
 Reference value :  1.00054e-05
 Reference value :  1.00063e-05
 Reference value :  1.00076e-05
 Reference value :  1.00088e-05
 Reference value :  1.00101e-05
 Reference value :  1.00116e-05
 Reference value :  1.00131e-05
 Reference value :  1.00146e-05
 Reference value :  1.00162e-05
 Reference value :  1.00178e-05
 Reference value :  1.00196e-05
 Reference value :  1.00233e-05
 Reference value :  1.00305e-05
 Reference value :  1.00429e-05
 Reference value :  1.00676e-05
 Reference value :  1.01170e-05
 Reference value :  1.02158e-05
 Reference value :  1.02501e-05
 Reference value :  1.02501e-05
 Reference value :  1.02501e-05
 Reference value :  1.02502e-05
 Reference value :  1.02502e-05
 Reference value :  1.02502e-05
 Reference value :  1.02502e-05
 Reference value :  1.02502e-05
 Reference value :  1.02502e-05
 Reference value :  1.02502e-05
 Reference value :  1.02502e-05
 Reference value :  1.02503e-05
 Reference value :  1.02504e-05
 Reference value :  1.02506e-05
 Reference value :  1.02509e-05
 Reference value :  1.02515e-05
 Reference value :  1.02521e-05
 Reference value :  1.02528e-05
 Reference value :  1.02535e-05
 Reference value :  1.02545e-05
 Reference value :  1.02552e-05
 Reference value :  1.02561e-05
 Reference value :  1.02568e-05
 Reference value :  1.02577e-05
 Reference value :  1.02587e-05
 Reference value :  1.02598e-05
 Reference value :  1.02609e-05
 Reference value :  1.02626e-05
 Reference value :  1.02645e-05
 Reference value :  1.02670e-05
 Reference value :  1.02702e-05
 Reference value :  1.02749e-05
 Reference value :  1.02841e-05
 Reference value :  1.03004e-05
 Reference value :  1.03329e-05
 Reference value :  1.03978e-05
 Reference value :  1.05000e-05
 Reference value :  1.05000e-05
 Reference value :  1.05000e-05
 Reference value :  1.05001e-05
 Reference value :  1.05001e-05
 Reference value :  1.05001e-05
 Reference value :  1.05001e-05
 Reference value :  1.05001e-05
 Reference value :  1.05002e-05
 Reference value :  1.05002e-05
 Reference value :  1.05004e-05
 Reference value :  1.05005e-05
 Reference value :  1.05009e-05
 Reference value :  1.05014e-05
 Reference value :  1.05020e-05
 Reference value :  1.05025e-05
 Reference value :  1.05032e-05
 Reference value :  1.05039e-05
 Reference value :  1.05046e-05
 Reference value :  1.05054e-05
 Reference value :  1.05062e-05
 Reference value :  1.05070e-05
 Reference value :  1.05079e-05
 Reference value :  1.05088e-05
 Reference value :  1.05097e-05
 Reference value :  1.05111e-05
 Reference value :  1.05124e-05
 Reference value :  1.05143e-05
 Reference value :  1.05163e-05
 Reference value :  1.05181e-05
 Reference value :  1.05201e-05
 Reference value :  1.05217e-05
 Reference value :  1.05233e-05
 Reference value :  1.05250e-05
 Reference value :  1.05267e-05
 Reference value :  1.05285e-05
 Reference value :  1.05305e-05
 Reference value :  1.05335e-05
 Reference value :  1.05367e-05
 Reference value :  1.05430e-05
 Reference value :  1.05497e-05
 Reference value :  1.05561e-05
 Reference value :  1.05616e-05
 Reference value :  1.05652e-05
 Reference value :  1.05683e-05
 Reference value :  1.05717e-05
 Reference value :  1.05776e-05
 Reference value :  1.05845e-05
 Reference value :  1.05946e-05
 Reference value :  1.06102e-05
 Reference value :  1.06325e-05
 Reference value :  1.06677e-05
 Reference value :  1.07203e-05
 Reference value :  1.07501e-05
 Reference value :  1.07501e-05
 Reference value :  1.07501e-05
 Reference value :  1.07502e-05
 Reference value :  1.07502e-05
 Reference value :  1.07502e-05
 Reference value :  1.07502e-05
 Reference value :  1.07502e-05
 Reference value :  1.07502e-05
 Reference value :  1.07502e-05
 Reference value :  1.07502e-05
 Reference value :  1.07503e-05
 Reference value :  1.07504e-05
 Reference value :  1.07506e-05
 Reference value :  1.07509e-05
 Reference value :  1.07515e-05
 Reference value :  1.07521e-05
 Reference value :  1.07528e-05
 Reference value :  1.07535e-05
 Reference value :  1.07545e-05
 Reference value :  1.07553e-05
 Reference value :  1.07561e-05
 Reference value :  1.07570e-05
 Reference value :  1.07579e-05
 Reference value :  1.07592e-05
 Reference value :  1.07610e-05
 Reference value :  1.07632e-05
 Reference value :  1.07664e-05
 Reference value :  1.07707e-05
 Reference value :  1.07792e-05
 Reference value :  1.07960e-05
 Reference value :  1.08247e-05
 Reference value :  1.08820e-05
 Reference value :  1.09422e-05
 Reference value :  1.10000e-05
 Reference value :  1.10000e-05
 Reference value :  1.10000e-05
 Reference value :  1.10001e-05
 Reference value :  1.10001e-05
 Reference value :  1.10001e-05
 Reference value :  1.10001e-05
 Reference value :  1.10001e-05
 Reference value :  1.10002e-05
 Reference value :  1.10002e-05
 Reference value :  1.10004e-05
 Reference value :  1.10005e-05
 Reference value :  1.10009e-05
 Reference value :  1.10014e-05
 Reference value :  1.10020e-05
 Reference value :  1.10025e-05
 Reference value :  1.10032e-05
 Reference value :  1.10039e-05
 Reference value :  1.10046e-05
 Reference value :  1.10055e-05
 Reference value :  1.10064e-05
 Reference value :  1.10076e-05
 Reference value :  1.10088e-05
 Reference value :  1.10101e-05
 Reference value :  1.10115e-05
 Reference value :  1.10130e-05
 Reference value :  1.10146e-05
 Reference value :  1.10162e-05
 Reference value :  1.10178e-05
 Reference value :  1.10197e-05
 Reference value :  1.10234e-05
 Reference value :  1.10307e-05
 Reference value :  1.10438e-05
 Reference value :  1.10699e-05
 Reference value :  1.11223e-05
 Reference value :  1.12269e-05
 Reference value :  1.12501e-05
 Reference value :  1.12501e-05
 Reference value :  1.12501e-05
 Reference value :  1.12502e-05
 Reference value :  1.12502e-05
 Reference value :  1.12502e-05
 Reference value :  1.12502e-05
 Reference value :  1.12502e-05
 Reference value :  1.12502e-05
 Reference value :  1.12502e-05
 Reference value :  1.12502e-05
 Reference value :  1.12503e-05
 Reference value :  1.12504e-05
 Reference value :  1.12506e-05
 Reference value :  1.12509e-05
 Reference value :  1.12515e-05
 Reference value :  1.12521e-05
 Reference value :  1.12527e-05
 Reference value :  1.12535e-05
 Reference value :  1.12545e-05
 Reference value :  1.12552e-05
 Reference value :  1.12561e-05
 Reference value :  1.12568e-05
 Reference value :  1.12577e-05
 Reference value :  1.12587e-05
 Reference value :  1.12598e-05
 Reference value :  1.12620e-05
 Reference value :  1.12644e-05
 Reference value :  1.12684e-05
 Reference value :  1.12733e-05
 Reference value :  1.12833e-05
 Reference value :  1.13031e-05
 Reference value :  1.13413e-05
 Reference value :  1.14178e-05
 Reference value :  1.15000e-05
 Reference value :  1.15000e-05
 Reference value :  1.15000e-05
 Reference value :  1.15001e-05
 Reference value :  1.15001e-05
 Reference value :  1.15001e-05
 Reference value :  1.15001e-05
 Reference value :  1.15001e-05
 Reference value :  1.15002e-05
 Reference value :  1.15002e-05
 Reference value :  1.15004e-05
 Reference value :  1.15005e-05
 Reference value :  1.15009e-05
 Reference value :  1.15014e-05
 Reference value :  1.15020e-05
 Reference value :  1.15025e-05
 Reference value :  1.15032e-05
 Reference value :  1.15039e-05
 Reference value :  1.15046e-05
 Reference value :  1.15054e-05
 Reference value :  1.15063e-05
 Reference value :  1.15072e-05
 Reference value :  1.15081e-05
 Reference value :  1.15090e-05
 Reference value :  1.15099e-05
 Reference value :  1.15112e-05
 Reference value :  1.15128e-05
 Reference value :  1.15155e-05
 Reference value :  1.15179e-05
 Reference value :  1.15201e-05
 Reference value :  1.15218e-05
 Reference value :  1.15234e-05
 Reference value :  1.15252e-05
 Reference value :  1.15269e-05
 Reference value :  1.15288e-05
 Reference value :  1.15308e-05
 Reference value :  1.15337e-05
 Reference value :  1.15375e-05
 Reference value :  1.15442e-05
 Reference value :  1.15554e-05
 Reference value :  1.15719e-05
 Reference value :  1.16006e-05
 Reference value :  1.16536e-05
 Reference value :  1.16986e-05
 Reference value :  1.17472e-05
 Reference value :  1.17501e-05
 Reference value :  1.17501e-05
 Reference value :  1.17501e-05
 Reference value :  1.17502e-05
 Reference value :  1.17502e-05
 Reference value :  1.17502e-05
 Reference value :  1.17502e-05
 Reference value :  1.17502e-05
 Reference value :  1.17502e-05
 Reference value :  1.17502e-05
 Reference value :  1.17502e-05
 Reference value :  1.17503e-05
 Reference value :  1.17504e-05
 Reference value :  1.17506e-05
 Reference value :  1.17509e-05
 Reference value :  1.17515e-05
 Reference value :  1.17521e-05
 Reference value :  1.17528e-05
 Reference value :  1.17535e-05
 Reference value :  1.17545e-05
 Reference value :  1.17553e-05
 Reference value :  1.17561e-05
 Reference value :  1.17570e-05
 Reference value :  1.17579e-05
 Reference value :  1.17592e-05
 Reference value :  1.17610e-05
 Reference value :  1.17632e-05
 Reference value :  1.17664e-05
 Reference value :  1.17707e-05
 Reference value :  1.17792e-05
 Reference value :  1.17960e-05
 Reference value :  1.18247e-05
 Reference value :  1.18820e-05
 Reference value :  1.19881e-05
 Reference value :  1.20000e-05
 Reference value :  1.20000e-05
 Reference value :  1.20000e-05
 Reference value :  1.20001e-05
 Reference value :  1.20001e-05
 Reference value :  1.20001e-05
 Reference value :  1.20001e-05
 Reference value :  1.20001e-05
 Reference value :  1.20002e-05
 Reference value :  1.20002e-05
 Reference value :  1.20004e-05
 Reference value :  1.20005e-05
 Reference value :  1.20009e-05
 Reference value :  1.20014e-05
 Reference value :  1.20020e-05
 Reference value :  1.20025e-05
 Reference value :  1.20032e-05
 Reference value :  1.20039e-05
 Reference value :  1.20046e-05
 Reference value :  1.20055e-05
 Reference value :  1.20063e-05
 Reference value :  1.20075e-05
 Reference value :  1.20087e-05
 Reference value :  1.20100e-05
 Reference value :  1.20115e-05
 Reference value :  1.20129e-05
 Reference value :  1.20143e-05
 Reference value :  1.20158e-05
 Reference value :  1.20173e-05
 Reference value :  1.20191e-05
 Reference value :  1.20225e-05
 Reference value :  1.20286e-05
 Reference value :  1.20408e-05
 Reference value :  1.20653e-05
 Reference value :  1.21141e-05
 Reference value :  1.22118e-05
 Reference value :  1.22501e-05
 Reference value :  1.22501e-05
 Reference value :  1.22501e-05
 Reference value :  1.22502e-05
 Reference value :  1.22502e-05
 Reference value :  1.22502e-05
 Reference value :  1.22502e-05
 Reference value :  1.22502e-05
 Reference value :  1.22502e-05
 Reference value :  1.22502e-05
 Reference value :  1.22502e-05
 Reference value :  1.22503e-05
 Reference value :  1.22504e-05
 Reference value :  1.22506e-05
 Reference value :  1.22509e-05
 Reference value :  1.22515e-05
 Reference value :  1.22521e-05
 Reference value :  1.22527e-05
 Reference value :  1.22535e-05
 Reference value :  1.22545e-05
 Reference value :  1.22552e-05
 Reference value :  1.22561e-05
 Reference value :  1.22568e-05
 Reference value :  1.22576e-05
 Reference value :  1.22587e-05
 Reference value :  1.22598e-05
 Reference value :  1.22620e-05
 Reference value :  1.22644e-05
 Reference value :  1.22683e-05
 Reference value :  1.22733e-05
 Reference value :  1.22831e-05
 Reference value :  1.23029e-05
 Reference value :  1.23408e-05
 Reference value :  1.24168e-05
 Reference value :  1.25000e-05
 Reference value :  1.25000e-05
 Reference value :  1.25000e-05
 Reference value :  1.25001e-05
 Reference value :  1.25001e-05
 Reference value :  1.25001e-05
 Reference value :  1.25001e-05
 Reference value :  1.25001e-05
 Reference value :  1.25002e-05
 Reference value :  1.25002e-05
 Reference value :  1.25004e-05
 Reference value :  1.25005e-05
 Reference value :  1.25009e-05
 Reference value :  1.25014e-05
 Reference value :  1.25020e-05
 Reference value :  1.25025e-05
 Reference value :  1.25032e-05
 Reference value :  1.25039e-05
 Reference value :  1.25046e-05
 Reference value :  1.25054e-05
 Reference value :  1.25064e-05
 Reference value :  1.25073e-05
 Reference value :  1.25081e-05
 Reference value :  1.25090e-05
 Reference value :  1.25100e-05
 Reference value :  1.25112e-05
 Reference value :  1.25129e-05
 Reference value :  1.25153e-05
 Reference value :  1.25179e-05
 Reference value :  1.25200e-05
 Reference value :  1.25217e-05
 Reference value :  1.25234e-05
 Reference value :  1.25252e-05
 Reference value :  1.25269e-05
 Reference value :  1.25288e-05
 Reference value :  1.25308e-05
 Reference value :  1.25336e-05
 Reference value :  1.25373e-05
 Reference value :  1.25433e-05
 Reference value :  1.25537e-05
 Reference value :  1.25649e-05
 Reference value :  1.25753e-05
 Reference value :  1.25868e-05
 Reference value :  1.25948e-05
 Reference value :  1.26023e-05
 Reference value :  1.26120e-05
 Reference value :  1.26190e-05
 Reference value :  1.26277e-05
 Reference value :  1.26387e-05
 Reference value :  1.26544e-05
 Reference value :  1.26709e-05
 Reference value :  1.26893e-05
 Reference value :  1.26992e-05
 Reference value :  1.27088e-05
 Reference value :  1.27184e-05
 Reference value :  1.27283e-05
 Reference value :  1.27459e-05
 Reference value :  1.27501e-05
 Reference value :  1.27501e-05
 Reference value :  1.27501e-05
 Reference value :  1.27502e-05
 Reference value :  1.27502e-05
 Reference value :  1.27502e-05
 Reference value :  1.27502e-05
 Reference value :  1.27502e-05
 Reference value :  1.27502e-05
 Reference value :  1.27502e-05
 Reference value :  1.27502e-05
 Reference value :  1.27503e-05
 Reference value :  1.27504e-05
 Reference value :  1.27506e-05
 Reference value :  1.27509e-05
 Reference value :  1.27515e-05
 Reference value :  1.27521e-05
 Reference value :  1.27528e-05
 Reference value :  1.27535e-05
 Reference value :  1.27545e-05
 Reference value :  1.27553e-05
 Reference value :  1.27561e-05
 Reference value :  1.27570e-05
 Reference value :  1.27579e-05
 Reference value :  1.27592e-05
 Reference value :  1.27610e-05
 Reference value :  1.27632e-05
 Reference value :  1.27663e-05
 Reference value :  1.27706e-05
 Reference value :  1.27793e-05
 Reference value :  1.27960e-05
 Reference value :  1.28249e-05
 Reference value :  1.28828e-05
 Reference value :  1.29985e-05
 Reference value :  1.30000e-05
 Reference value :  1.30000e-05
 Reference value :  1.30000e-05
 Reference value :  1.30001e-05
 Reference value :  1.30001e-05
 Reference value :  1.30001e-05
 Reference value :  1.30001e-05
 Reference value :  1.30001e-05
 Reference value :  1.30002e-05
 Reference value :  1.30002e-05
 Reference value :  1.30004e-05
 Reference value :  1.30005e-05
 Reference value :  1.30009e-05
 Reference value :  1.30014e-05
 Reference value :  1.30020e-05
 Reference value :  1.30025e-05
 Reference value :  1.30032e-05
 Reference value :  1.30039e-05
 Reference value :  1.30046e-05
 Reference value :  1.30055e-05
 Reference value :  1.30063e-05
 Reference value :  1.30075e-05
 Reference value :  1.30087e-05
 Reference value :  1.30099e-05
 Reference value :  1.30113e-05
 Reference value :  1.30128e-05
 Reference value :  1.30143e-05
 Reference value :  1.30158e-05
 Reference value :  1.30174e-05
 Reference value :  1.30191e-05
 Reference value :  1.30223e-05
 Reference value :  1.30271e-05
 Reference value :  1.30367e-05
 Reference value :  1.30552e-05
 Reference value :  1.30914e-05
 Reference value :  1.31639e-05
 Reference value :  1.32501e-05
 Reference value :  1.32501e-05
 Reference value :  1.32501e-05
 Reference value :  1.32502e-05
 Reference value :  1.32502e-05
 Reference value :  1.32502e-05
 Reference value :  1.32502e-05
 Reference value :  1.32502e-05
 Reference value :  1.32502e-05
 Reference value :  1.32502e-05
 Reference value :  1.32502e-05
 Reference value :  1.32503e-05
 Reference value :  1.32504e-05
 Reference value :  1.32506e-05
 Reference value :  1.32509e-05
 Reference value :  1.32515e-05
 Reference value :  1.32521e-05
 Reference value :  1.32527e-05
 Reference value :  1.32535e-05
 Reference value :  1.32545e-05
 Reference value :  1.32552e-05
 Reference value :  1.32561e-05
 Reference value :  1.32568e-05
 Reference value :  1.32576e-05
 Reference value :  1.32586e-05
 Reference value :  1.32598e-05
 Reference value :  1.32620e-05
 Reference value :  1.32643e-05
 Reference value :  1.32683e-05
 Reference value :  1.32732e-05
 Reference value :  1.32830e-05
 Reference value :  1.33026e-05
 Reference value :  1.33401e-05
 Reference value :  1.34152e-05
 Reference value :  1.35000e-05
 Reference value :  1.35000e-05
 Reference value :  1.35000e-05
 Reference value :  1.35001e-05
 Reference value :  1.35001e-05
 Reference value :  1.35001e-05
 Reference value :  1.35001e-05
 Reference value :  1.35001e-05
 Reference value :  1.35002e-05
 Reference value :  1.35002e-05
 Reference value :  1.35004e-05
 Reference value :  1.35005e-05
 Reference value :  1.35009e-05
 Reference value :  1.35014e-05
 Reference value :  1.35020e-05
 Reference value :  1.35025e-05
 Reference value :  1.35032e-05
 Reference value :  1.35039e-05
 Reference value :  1.35046e-05
 Reference value :  1.35055e-05
 Reference value :  1.35064e-05
 Reference value :  1.35073e-05
 Reference value :  1.35081e-05
 Reference value :  1.35090e-05
 Reference value :  1.35100e-05
 Reference value :  1.35111e-05
 Reference value :  1.35130e-05
 Reference value :  1.35155e-05
 Reference value :  1.35180e-05
 Reference value :  1.35202e-05
 Reference value :  1.35219e-05
 Reference value :  1.35235e-05
 Reference value :  1.35251e-05
 Reference value :  1.35268e-05
 Reference value :  1.35287e-05
 Reference value :  1.35307e-05
 Reference value :  1.35334e-05
 Reference value :  1.35371e-05
 Reference value :  1.35432e-05
 Reference value :  1.35490e-05
 Reference value :  1.35555e-05
 Reference value :  1.35631e-05
 Reference value :  1.35683e-05
 Reference value :  1.35736e-05
 Reference value :  1.35799e-05
 Reference value :  1.35866e-05
 Reference value :  1.35946e-05
 Reference value :  1.36028e-05
 Reference value :  1.36106e-05
 Reference value :  1.36263e-05
 Reference value :  1.36429e-05
 Reference value :  1.36694e-05
 Reference value :  1.37124e-05
 Reference value :  1.37501e-05
 Reference value :  1.37501e-05
 Reference value :  1.37501e-05
 Reference value :  1.37502e-05
 Reference value :  1.37502e-05
 Reference value :  1.37502e-05
 Reference value :  1.37502e-05
 Reference value :  1.37502e-05
 Reference value :  1.37502e-05
 Reference value :  1.37502e-05
 Reference value :  1.37502e-05
 Reference value :  1.37503e-05
 Reference value :  1.37504e-05
 Reference value :  1.37506e-05
 Reference value :  1.37509e-05
 Reference value :  1.37515e-05
 Reference value :  1.37521e-05
 Reference value :  1.37528e-05
 Reference value :  1.37535e-05
 Reference value :  1.37545e-05
 Reference value :  1.37552e-05
 Reference value :  1.37560e-05
 Reference value :  1.37569e-05
 Reference value :  1.37579e-05
 Reference value :  1.37591e-05
 Reference value :  1.37610e-05
 Reference value :  1.37632e-05
 Reference value :  1.37663e-05
 Reference value :  1.37705e-05
 Reference value :  1.37790e-05
 Reference value :  1.37958e-05
 Reference value :  1.38243e-05
 Reference value :  1.38814e-05
 Reference value :  1.39957e-05
 Reference value :  1.40000e-05
 Reference value :  1.40000e-05
 Reference value :  1.40000e-05
 Reference value :  1.40001e-05
 Reference value :  1.40001e-05
 Reference value :  1.40001e-05
 Reference value :  1.40001e-05
 Reference value :  1.40001e-05
 Reference value :  1.40002e-05
 Reference value :  1.40002e-05
 Reference value :  1.40004e-05
 Reference value :  1.40005e-05
 Reference value :  1.40009e-05
 Reference value :  1.40014e-05
 Reference value :  1.40020e-05
 Reference value :  1.40025e-05
 Reference value :  1.40032e-05
 Reference value :  1.40039e-05
 Reference value :  1.40046e-05
 Reference value :  1.40054e-05
 Reference value :  1.40063e-05
 Reference value :  1.40076e-05
 Reference value :  1.40088e-05
 Reference value :  1.40100e-05
 Reference value :  1.40114e-05
 Reference value :  1.40130e-05
 Reference value :  1.40145e-05
 Reference value :  1.40161e-05
 Reference value :  1.40178e-05
 Reference value :  1.40198e-05
 Reference value :  1.40232e-05
 Reference value :  1.40282e-05
 Reference value :  1.40374e-05
 Reference value :  1.40543e-05
 Reference value :  1.40851e-05
 Reference value :  1.41451e-05
 Reference value :  1.42501e-05
 Reference value :  1.42501e-05
 Reference value :  1.42501e-05
 Reference value :  1.42502e-05
 Reference value :  1.42502e-05
 Reference value :  1.42502e-05
 Reference value :  1.42502e-05
 Reference value :  1.42502e-05
 Reference value :  1.42502e-05
 Reference value :  1.42502e-05
 Reference value :  1.42502e-05
 Reference value :  1.42503e-05
 Reference value :  1.42504e-05
 Reference value :  1.42506e-05
 Reference value :  1.42509e-05
 Reference value :  1.42515e-05
 Reference value :  1.42521e-05
 Reference value :  1.42527e-05
 Reference value :  1.42535e-05
 Reference value :  1.42545e-05
 Reference value :  1.42552e-05
 Reference value :  1.42561e-05
 Reference value :  1.42568e-05
 Reference value :  1.42577e-05
 Reference value :  1.42587e-05
 Reference value :  1.42598e-05
 Reference value :  1.42609e-05
 Reference value :  1.42626e-05
 Reference value :  1.42645e-05
 Reference value :  1.42670e-05
 Reference value :  1.42702e-05
 Reference value :  1.42748e-05
 Reference value :  1.42841e-05
 Reference value :  1.43004e-05
 Reference value :  1.43332e-05
 Reference value :  1.43987e-05
 Reference value :  1.45000e-05
 Reference value :  1.45000e-05
 Reference value :  1.45000e-05
 Reference value :  1.45001e-05
 Reference value :  1.45001e-05
 Reference value :  1.45001e-05
 Reference value :  1.45001e-05
 Reference value :  1.45001e-05
 Reference value :  1.45002e-05
 Reference value :  1.45002e-05
 Reference value :  1.45004e-05
 Reference value :  1.45005e-05
 Reference value :  1.45009e-05
 Reference value :  1.45014e-05
 Reference value :  1.45020e-05
 Reference value :  1.45025e-05
 Reference value :  1.45032e-05
 Reference value :  1.45039e-05
 Reference value :  1.45046e-05
 Reference value :  1.45054e-05
 Reference value :  1.45063e-05
 Reference value :  1.45071e-05
 Reference value :  1.45078e-05
 Reference value :  1.45087e-05
 Reference value :  1.45096e-05
 Reference value :  1.45107e-05
 Reference value :  1.45122e-05
 Reference value :  1.45138e-05
 Reference value :  1.45154e-05
 Reference value :  1.45172e-05
 Reference value :  1.45188e-05
 Reference value :  1.45205e-05
 Reference value :  1.45218e-05
 Reference value :  1.45229e-05
 Reference value :  1.45242e-05
 Reference value :  1.45256e-05
 Reference value :  1.45269e-05
 Reference value :  1.45285e-05
 Reference value :  1.45307e-05
 Reference value :  1.45322e-05
 Reference value :  1.45338e-05
 Reference value :  1.45357e-05
 Reference value :  1.45377e-05
 Reference value :  1.45412e-05
 Reference value :  1.45455e-05
 Reference value :  1.45529e-05
 Reference value :  1.45625e-05
 Reference value :  1.45741e-05
 Reference value :  1.45915e-05
 Reference value :  1.46263e-05
 Reference value :  1.46788e-05
 Reference value :  1.47501e-05
 Reference value :  1.47501e-05
 Reference value :  1.47501e-05
 Reference value :  1.47502e-05
 Reference value :  1.47502e-05
 Reference value :  1.47502e-05
 Reference value :  1.47502e-05
 Reference value :  1.47502e-05
 Reference value :  1.47502e-05
 Reference value :  1.47502e-05
 Reference value :  1.47502e-05
 Reference value :  1.47503e-05
 Reference value :  1.47504e-05
 Reference value :  1.47506e-05
 Reference value :  1.47509e-05
 Reference value :  1.47515e-05
 Reference value :  1.47521e-05
 Reference value :  1.47528e-05
 Reference value :  1.47535e-05
 Reference value :  1.47545e-05
 Reference value :  1.47553e-05
 Reference value :  1.47561e-05
 Reference value :  1.47570e-05
 Reference value :  1.47579e-05
 Reference value :  1.47592e-05
 Reference value :  1.47610e-05
 Reference value :  1.47632e-05
 Reference value :  1.47663e-05
 Reference value :  1.47706e-05
 Reference value :  1.47792e-05
 Reference value :  1.47959e-05
 Reference value :  1.48245e-05
 Reference value :  1.48819e-05
 Reference value :  1.49924e-05
 Reference value :  1.50000e-05
 Reference value :  1.50000e-05
 Reference value :  1.50000e-05
 Reference value :  1.50001e-05
 Reference value :  1.50001e-05
 Reference value :  1.50001e-05
 Reference value :  1.50001e-05
 Reference value :  1.50001e-05
 Reference value :  1.50002e-05
 Reference value :  1.50002e-05
 Reference value :  1.50004e-05
 Reference value :  1.50005e-05
 Reference value :  1.50009e-05
 Reference value :  1.50014e-05
 Reference value :  1.50020e-05
 Reference value :  1.50025e-05
 Reference value :  1.50032e-05
 Reference value :  1.50039e-05
 Reference value :  1.50046e-05
 Reference value :  1.50055e-05
 Reference value :  1.50063e-05
 Reference value :  1.50075e-05
 Reference value :  1.50087e-05
 Reference value :  1.50100e-05
 Reference value :  1.50115e-05
 Reference value :  1.50129e-05
 Reference value :  1.50143e-05
 Reference value :  1.50158e-05
 Reference value :  1.50174e-05
 Reference value :  1.50193e-05
 Reference value :  1.50226e-05
 Reference value :  1.50275e-05
 Reference value :  1.50372e-05
 Reference value :  1.50553e-05
 Reference value :  1.50896e-05
 Reference value :  1.51582e-05
 Reference value :  1.52501e-05
 Reference value :  1.52501e-05
 Reference value :  1.52501e-05
 Reference value :  1.52502e-05
 Reference value :  1.52502e-05
 Reference value :  1.52502e-05
 Reference value :  1.52502e-05
 Reference value :  1.52502e-05
 Reference value :  1.52502e-05
 Reference value :  1.52502e-05
 Reference value :  1.52502e-05
 Reference value :  1.52503e-05
 Reference value :  1.52504e-05
 Reference value :  1.52506e-05
 Reference value :  1.52509e-05
 Reference value :  1.52515e-05
 Reference value :  1.52521e-05
 Reference value :  1.52527e-05
 Reference value :  1.52535e-05
 Reference value :  1.52545e-05
 Reference value :  1.52552e-05
 Reference value :  1.52561e-05
 Reference value :  1.52568e-05
 Reference value :  1.52577e-05
 Reference value :  1.52587e-05
 Reference value :  1.52598e-05
 Reference value :  1.52620e-05
 Reference value :  1.52644e-05
 Reference value :  1.52683e-05
 Reference value :  1.52733e-05
 Reference value :  1.52831e-05
 Reference value :  1.53029e-05
 Reference value :  1.53409e-05
 Reference value :  1.54168e-05
 Reference value :  1.55000e-05
 Reference value :  1.55012e-05
 Reference value :  1.55036e-05
 Reference value :  1.55048e-05
 Reference value :  1.55060e-05
 Reference value :  1.55070e-05
 Reference value :  1.55081e-05
 Reference value :  1.55090e-05
 Reference value :  1.55100e-05
 Reference value :  1.55113e-05
 Reference value :  1.55127e-05
 Reference value :  1.55152e-05
 Reference value :  1.55183e-05
 Reference value :  1.55205e-05
 Reference value :  1.55229e-05
 Reference value :  1.55248e-05
 Reference value :  1.55268e-05
 Reference value :  1.55287e-05
 Reference value :  1.55310e-05
 Reference value :  1.55333e-05
 Reference value :  1.55362e-05
 Reference value :  1.55402e-05
 Reference value :  1.55455e-05
 Reference value :  1.55519e-05
 Reference value :  1.55619e-05
 Reference value :  1.55787e-05
 Reference value :  1.56023e-05
 Reference value :  1.56437e-05
 Reference value :  1.56878e-05
 Reference value :  1.57501e-05
 Reference value :  1.57501e-05
 Reference value :  1.57501e-05
 Reference value :  1.57502e-05
 Reference value :  1.57502e-05
 Reference value :  1.57502e-05
 Reference value :  1.57502e-05
 Reference value :  1.57502e-05
 Reference value :  1.57502e-05
 Reference value :  1.57502e-05
 Reference value :  1.57502e-05
 Reference value :  1.57503e-05
 Reference value :  1.57504e-05
 Reference value :  1.57506e-05
[...]
 Reference value :  1.74250e-04
 Reference value :  1.74250e-04
 Reference value :  1.74250e-04
 Reference value :  1.74250e-04
 Reference value :  1.74250e-04
 Reference value :  1.74250e-04
 Reference value :  1.74250e-04
 Reference value :  1.74250e-04
 Reference value :  1.74250e-04
 Reference value :  1.74251e-04
 Reference value :  1.74251e-04
 Reference value :  1.74251e-04
 Reference value :  1.74252e-04
 Reference value :  1.74253e-04
 Reference value :  1.74253e-04
 Reference value :  1.74254e-04
 Reference value :  1.74255e-04
 Reference value :  1.74256e-04
 Reference value :  1.74257e-04
 Reference value :  1.74258e-04
 Reference value :  1.74259e-04
 Reference value :  1.74261e-04
 Reference value :  1.74263e-04
 Reference value :  1.74266e-04
 Reference value :  1.74271e-04
 Reference value :  1.74279e-04
 Reference value :  1.74296e-04
 Reference value :  1.74325e-04
 Reference value :  1.74382e-04
 Reference value :  1.74497e-04
 Reference value :  1.74500e-04
 Reference value :  1.74500e-04
 Reference value :  1.74500e-04
 Reference value :  1.74500e-04
 Reference value :  1.74500e-04
 Reference value :  1.74500e-04
 Reference value :  1.74500e-04
 Reference value :  1.74500e-04
 Reference value :  1.74500e-04
 Reference value :  1.74500e-04
 Reference value :  1.74500e-04
 Reference value :  1.74501e-04
 Reference value :  1.74501e-04
 Reference value :  1.74501e-04
 Reference value :  1.74502e-04
 Reference value :  1.74503e-04
 Reference value :  1.74503e-04
 Reference value :  1.74504e-04
 Reference value :  1.74505e-04
 Reference value :  1.74505e-04
 Reference value :  1.74506e-04
 Reference value :  1.74508e-04
 Reference value :  1.74509e-04
 Reference value :  1.74510e-04
 Reference value :  1.74511e-04
 Reference value :  1.74513e-04
 Reference value :  1.74514e-04
 Reference value :  1.74516e-04
 Reference value :  1.74517e-04
 Reference value :  1.74519e-04
 Reference value :  1.74522e-04
 Reference value :  1.74527e-04
 Reference value :  1.74537e-04
 Reference value :  1.74555e-04
 Reference value :  1.74592e-04
 Reference value :  1.74665e-04
 Reference value :  1.74750e-04
 Reference value :  1.74750e-04
 Reference value :  1.74750e-04
 Reference value :  1.74750e-04
 Reference value :  1.74750e-04
 Reference value :  1.74750e-04
 Reference value :  1.74750e-04
 Reference value :  1.74750e-04
 Reference value :  1.74750e-04
 Reference value :  1.74750e-04
 Reference value :  1.74750e-04
 Reference value :  1.74750e-04
 Reference value :  1.74750e-04
 Reference value :  1.74751e-04
 Reference value :  1.74751e-04
 Reference value :  1.74751e-04
 Reference value :  1.74752e-04
 Reference value :  1.74753e-04
 Reference value :  1.74753e-04
 Reference value :  1.74754e-04
 Reference value :  1.74755e-04
 Reference value :  1.74756e-04
 Reference value :  1.74757e-04
 Reference value :  1.74758e-04
 Reference value :  1.74759e-04
 Reference value :  1.74760e-04
 Reference value :  1.74762e-04
 Reference value :  1.74764e-04
 Reference value :  1.74768e-04
 Reference value :  1.74773e-04
 Reference value :  1.74783e-04
 Reference value :  1.74803e-04
 Reference value :  1.74840e-04
 Reference value :  1.74915e-04
 Reference value :  1.75000e-04
 Reference value :  1.75000e-04
 Reference value :  1.75000e-04
 Reference value :  1.75000e-04
 Reference value :  1.75000e-04
 Reference value :  1.75000e-04
 Reference value :  1.75000e-04
 Reference value :  1.75000e-04
 Reference value :  1.75000e-04
 Reference value :  1.75000e-04
 Reference value :  1.75000e-04
 Reference value :  1.75001e-04
 Reference value :  1.75001e-04
 Reference value :  1.75001e-04
 Reference value :  1.75002e-04
 Reference value :  1.75003e-04
 Reference value :  1.75003e-04
 Reference value :  1.75004e-04
 Reference value :  1.75005e-04
 Reference value :  1.75005e-04
 Reference value :  1.75006e-04
 Reference value :  1.75007e-04
 Reference value :  1.75008e-04
 Reference value :  1.75009e-04
 Reference value :  1.75010e-04
 Reference value :  1.75011e-04
 Reference value :  1.75013e-04
 Reference value :  1.75015e-04
 Reference value :  1.75018e-04
 Reference value :  1.75020e-04
 Reference value :  1.75022e-04
 Reference value :  1.75023e-04
 Reference value :  1.75025e-04
 Reference value :  1.75027e-04
 Reference value :  1.75029e-04
 Reference value :  1.75031e-04
 Reference value :  1.75033e-04
 Reference value :  1.75037e-04
 Reference value :  1.75043e-04
 Reference value :  1.75053e-04
 Reference value :  1.75070e-04
 Reference value :  1.75087e-04
 Reference value :  1.75104e-04
 Reference value :  1.75126e-04
 Reference value :  1.75151e-04
 Reference value :  1.75185e-04
 Reference value :  1.75222e-04
 Reference value :  1.75250e-04
 Reference value :  1.75250e-04
 Reference value :  1.75250e-04
 Reference value :  1.75250e-04
 Reference value :  1.75250e-04
 Reference value :  1.75250e-04
 Reference value :  1.75250e-04
 Reference value :  1.75250e-04
 Reference value :  1.75250e-04
 Reference value :  1.75250e-04
 Reference value :  1.75250e-04
 Reference value :  1.75250e-04
 Reference value :  1.75250e-04
 Reference value :  1.75251e-04
 Reference value :  1.75251e-04
 Reference value :  1.75251e-04
 Reference value :  1.75252e-04
 Reference value :  1.75253e-04
 Reference value :  1.75253e-04
 Reference value :  1.75255e-04
 Reference value :  1.75255e-04
 Reference value :  1.75256e-04
 Reference value :  1.75257e-04
 Reference value :  1.75258e-04
 Reference value :  1.75259e-04
 Reference value :  1.75261e-04
 Reference value :  1.75263e-04
 Reference value :  1.75266e-04
 Reference value :  1.75271e-04
 Reference value :  1.75279e-04
 Reference value :  1.75296e-04
 Reference value :  1.75325e-04
 Reference value :  1.75382e-04
 Reference value :  1.75491e-04
 Reference value :  1.75500e-04
 Reference value :  1.75500e-04
 Reference value :  1.75500e-04
 Reference value :  1.75500e-04
 Reference value :  1.75500e-04
 Reference value :  1.75500e-04
 Reference value :  1.75500e-04
 Reference value :  1.75500e-04
 Reference value :  1.75500e-04
 Reference value :  1.75500e-04
 Reference value :  1.75500e-04
 Reference value :  1.75501e-04
 Reference value :  1.75501e-04
 Reference value :  1.75501e-04
 Reference value :  1.75502e-04
 Reference value :  1.75503e-04
 Reference value :  1.75503e-04
 Reference value :  1.75504e-04
 Reference value :  1.75505e-04
 Reference value :  1.75505e-04
 Reference value :  1.75506e-04
 Reference value :  1.75508e-04
 Reference value :  1.75509e-04
 Reference value :  1.75510e-04
 Reference value :  1.75511e-04
 Reference value :  1.75513e-04
 Reference value :  1.75514e-04
 Reference value :  1.75515e-04
 Reference value :  1.75517e-04
 Reference value :  1.75519e-04
 Reference value :  1.75522e-04
 Reference value :  1.75527e-04
 Reference value :  1.75537e-04
 Reference value :  1.75557e-04
 Reference value :  1.75597e-04
 Reference value :  1.75676e-04
 Reference value :  1.75750e-04
 Reference value :  1.75750e-04
 Reference value :  1.75750e-04
 Reference value :  1.75750e-04
 Reference value :  1.75750e-04
 Reference value :  1.75750e-04
 Reference value :  1.75750e-04
 Reference value :  1.75750e-04
 Reference value :  1.75750e-04
 Reference value :  1.75750e-04
 Reference value :  1.75750e-04
 Reference value :  1.75750e-04
 Reference value :  1.75750e-04
 Reference value :  1.75751e-04
 Reference value :  1.75751e-04
 Reference value :  1.75751e-04
 Reference value :  1.75752e-04
 Reference value :  1.75753e-04
 Reference value :  1.75753e-04
 Reference value :  1.75754e-04
 Reference value :  1.75755e-04
 Reference value :  1.75756e-04
 Reference value :  1.75757e-04
 Reference value :  1.75758e-04
 Reference value :  1.75759e-04
 Reference value :  1.75760e-04
 Reference value :  1.75762e-04
 Reference value :  1.75764e-04
 Reference value :  1.75768e-04
 Reference value :  1.75773e-04
 Reference value :  1.75783e-04
 Reference value :  1.75803e-04
 Reference value :  1.75841e-04
 Reference value :  1.75917e-04
 Reference value :  1.76000e-04
 Reference value :  1.76000e-04
 Reference value :  1.76000e-04
 Reference value :  1.76000e-04
 Reference value :  1.76000e-04
 Reference value :  1.76000e-04
 Reference value :  1.76000e-04
 Reference value :  1.76000e-04
 Reference value :  1.76000e-04
 Reference value :  1.76000e-04
 Reference value :  1.76000e-04
 Reference value :  1.76001e-04
 Reference value :  1.76001e-04
 Reference value :  1.76001e-04
 Reference value :  1.76002e-04
 Reference value :  1.76003e-04
 Reference value :  1.76003e-04
 Reference value :  1.76004e-04
 Reference value :  1.76005e-04
 Reference value :  1.76005e-04
 Reference value :  1.76006e-04
 Reference value :  1.76007e-04
 Reference value :  1.76008e-04
 Reference value :  1.76009e-04
 Reference value :  1.76010e-04
 Reference value :  1.76011e-04
 Reference value :  1.76013e-04
 Reference value :  1.76015e-04
 Reference value :  1.76018e-04
 Reference value :  1.76020e-04
 Reference value :  1.76022e-04
 Reference value :  1.76024e-04
 Reference value :  1.76025e-04
 Reference value :  1.76027e-04
 Reference value :  1.76029e-04
 Reference value :  1.76031e-04
 Reference value :  1.76034e-04
 Reference value :  1.76038e-04
 Reference value :  1.76043e-04
 Reference value :  1.76052e-04
 Reference value :  1.76061e-04
 Reference value :  1.76072e-04
 Reference value :  1.76086e-04
 Reference value :  1.76105e-04
 Reference value :  1.76143e-04
 Reference value :  1.76192e-04
 Reference value :  1.76250e-04
 Reference value :  1.76250e-04
 Reference value :  1.76250e-04
 Reference value :  1.76250e-04
 Reference value :  1.76250e-04
 Reference value :  1.76250e-04
 Reference value :  1.76250e-04
 Reference value :  1.76250e-04
 Reference value :  1.76250e-04
 Reference value :  1.76250e-04
 Reference value :  1.76250e-04
 Reference value :  1.76250e-04
 Reference value :  1.76250e-04
 Reference value :  1.76251e-04
 Reference value :  1.76251e-04
 Reference value :  1.76251e-04
 Reference value :  1.76252e-04
 Reference value :  1.76253e-04
 Reference value :  1.76253e-04
 Reference value :  1.76254e-04
 Reference value :  1.76255e-04
 Reference value :  1.76256e-04
 Reference value :  1.76257e-04
 Reference value :  1.76258e-04
 Reference value :  1.76259e-04
 Reference value :  1.76261e-04
 Reference value :  1.76263e-04
 Reference value :  1.76266e-04
 Reference value :  1.76271e-04
 Reference value :  1.76279e-04
 Reference value :  1.76296e-04
 Reference value :  1.76324e-04
 Reference value :  1.76381e-04
 Reference value :  1.76495e-04
 Reference value :  1.76500e-04
 Reference value :  1.76500e-04
 Reference value :  1.76500e-04
 Reference value :  1.76500e-04
 Reference value :  1.76500e-04
 Reference value :  1.76500e-04
 Reference value :  1.76500e-04
 Reference value :  1.76500e-04
 Reference value :  1.76500e-04
 Reference value :  1.76500e-04
 Reference value :  1.76500e-04
 Reference value :  1.76501e-04
 Reference value :  1.76501e-04
 Reference value :  1.76501e-04
 Reference value :  1.76502e-04
 Reference value :  1.76503e-04
 Reference value :  1.76503e-04
 Reference value :  1.76504e-04
 Reference value :  1.76505e-04
 Reference value :  1.76505e-04
 Reference value :  1.76506e-04
 Reference value :  1.76508e-04
 Reference value :  1.76509e-04
 Reference value :  1.76510e-04
 Reference value :  1.76511e-04
 Reference value :  1.76513e-04
 Reference value :  1.76514e-04
 Reference value :  1.76516e-04
 Reference value :  1.76517e-04
 Reference value :  1.76519e-04
 Reference value :  1.76523e-04
 Reference value :  1.76528e-04
 Reference value :  1.76537e-04
 Reference value :  1.76555e-04
 Reference value :  1.76589e-04
 Reference value :  1.76658e-04
 Reference value :  1.76750e-04
 Reference value :  1.76750e-04
 Reference value :  1.76750e-04
 Reference value :  1.76750e-04
 Reference value :  1.76750e-04
 Reference value :  1.76750e-04
 Reference value :  1.76750e-04
 Reference value :  1.76750e-04
 Reference value :  1.76750e-04
 Reference value :  1.76750e-04
 Reference value :  1.76750e-04
 Reference value :  1.76750e-04
 Reference value :  1.76750e-04
 Reference value :  1.76751e-04
 Reference value :  1.76751e-04
 Reference value :  1.76751e-04
 Reference value :  1.76752e-04
 Reference value :  1.76753e-04
 Reference value :  1.76753e-04
 Reference value :  1.76754e-04
 Reference value :  1.76755e-04
 Reference value :  1.76756e-04
 Reference value :  1.76757e-04
 Reference value :  1.76758e-04
 Reference value :  1.76759e-04
 Reference value :  1.76760e-04
 Reference value :  1.76762e-04
 Reference value :  1.76764e-04
 Reference value :  1.76768e-04
 Reference value :  1.76773e-04
 Reference value :  1.76783e-04
 Reference value :  1.76803e-04
 Reference value :  1.76841e-04
 Reference value :  1.76917e-04
 Reference value :  1.77000e-04
 Reference value :  1.77000e-04
 Reference value :  1.77000e-04
 Reference value :  1.77000e-04
 Reference value :  1.77000e-04
 Reference value :  1.77000e-04
 Reference value :  1.77000e-04
 Reference value :  1.77000e-04
 Reference value :  1.77000e-04
 Reference value :  1.77000e-04
 Reference value :  1.77000e-04
 Reference value :  1.77001e-04
 Reference value :  1.77001e-04
 Reference value :  1.77001e-04
 Reference value :  1.77002e-04
 Reference value :  1.77003e-04
 Reference value :  1.77003e-04
 Reference value :  1.77004e-04
 Reference value :  1.77005e-04
 Reference value :  1.77005e-04
 Reference value :  1.77006e-04
 Reference value :  1.77007e-04
 Reference value :  1.77008e-04
 Reference value :  1.77009e-04
 Reference value :  1.77010e-04
 Reference value :  1.77011e-04
 Reference value :  1.77013e-04
 Reference value :  1.77015e-04
 Reference value :  1.77018e-04
 Reference value :  1.77020e-04
 Reference value :  1.77022e-04
 Reference value :  1.77024e-04
 Reference value :  1.77026e-04
 Reference value :  1.77027e-04
 Reference value :  1.77029e-04
 Reference value :  1.77032e-04
 Reference value :  1.77034e-04
 Reference value :  1.77038e-04
 Reference value :  1.77043e-04
 Reference value :  1.77049e-04
 Reference value :  1.77057e-04
 Reference value :  1.77072e-04
 Reference value :  1.77094e-04
 Reference value :  1.77134e-04
 Reference value :  1.77204e-04
 Reference value :  1.77250e-04
 Reference value :  1.77250e-04
 Reference value :  1.77250e-04
 Reference value :  1.77250e-04
 Reference value :  1.77250e-04
 Reference value :  1.77250e-04
 Reference value :  1.77250e-04
 Reference value :  1.77250e-04
 Reference value :  1.77250e-04
 Reference value :  1.77250e-04
 Reference value :  1.77250e-04
 Reference value :  1.77250e-04
 Reference value :  1.77250e-04
 Reference value :  1.77251e-04
 Reference value :  1.77251e-04
 Reference value :  1.77251e-04
 Reference value :  1.77252e-04
 Reference value :  1.77253e-04
 Reference value :  1.77253e-04
 Reference value :  1.77255e-04
 Reference value :  1.77255e-04
 Reference value :  1.77256e-04
 Reference value :  1.77257e-04
 Reference value :  1.77258e-04
 Reference value :  1.77259e-04
 Reference value :  1.77261e-04
 Reference value :  1.77263e-04
 Reference value :  1.77266e-04
 Reference value :  1.77271e-04
 Reference value :  1.77279e-04
 Reference value :  1.77296e-04
 Reference value :  1.77325e-04
 Reference value :  1.77382e-04
 Reference value :  1.77489e-04
 Reference value :  1.77500e-04
 Reference value :  1.77500e-04
 Reference value :  1.77500e-04
 Reference value :  1.77500e-04
 Reference value :  1.77500e-04
 Reference value :  1.77500e-04
 Reference value :  1.77500e-04
 Reference value :  1.77500e-04
 Reference value :  1.77500e-04
 Reference value :  1.77500e-04
 Reference value :  1.77500e-04
 Reference value :  1.77501e-04
 Reference value :  1.77501e-04
 Reference value :  1.77501e-04
 Reference value :  1.77502e-04
 Reference value :  1.77503e-04
 Reference value :  1.77503e-04
 Reference value :  1.77504e-04
 Reference value :  1.77505e-04
 Reference value :  1.77505e-04
 Reference value :  1.77506e-04
 Reference value :  1.77508e-04
 Reference value :  1.77509e-04
 Reference value :  1.77510e-04
 Reference value :  1.77512e-04
 Reference value :  1.77513e-04
 Reference value :  1.77514e-04
 Reference value :  1.77516e-04
 Reference value :  1.77517e-04
 Reference value :  1.77519e-04
 Reference value :  1.77523e-04
 Reference value :  1.77528e-04
 Reference value :  1.77538e-04
 Reference value :  1.77558e-04
 Reference value :  1.77597e-04
 Reference value :  1.77677e-04
 Reference value :  1.77750e-04
 Reference value :  1.77750e-04
 Reference value :  1.77750e-04
 Reference value :  1.77750e-04
 Reference value :  1.77750e-04
 Reference value :  1.77750e-04
 Reference value :  1.77750e-04
 Reference value :  1.77750e-04
 Reference value :  1.77750e-04
 Reference value :  1.77750e-04
 Reference value :  1.77750e-04
 Reference value :  1.77750e-04
 Reference value :  1.77750e-04
 Reference value :  1.77751e-04
 Reference value :  1.77751e-04
 Reference value :  1.77751e-04
 Reference value :  1.77752e-04
 Reference value :  1.77753e-04
 Reference value :  1.77753e-04
 Reference value :  1.77754e-04
 Reference value :  1.77755e-04
 Reference value :  1.77756e-04
 Reference value :  1.77757e-04
 Reference value :  1.77758e-04
 Reference value :  1.77759e-04
 Reference value :  1.77760e-04
 Reference value :  1.77762e-04
 Reference value :  1.77764e-04
 Reference value :  1.77768e-04
 Reference value :  1.77773e-04
 Reference value :  1.77783e-04
 Reference value :  1.77803e-04
 Reference value :  1.77843e-04
 Reference value :  1.77922e-04
 Reference value :  1.78000e-04
 Reference value :  1.78000e-04
 Reference value :  1.78000e-04
 Reference value :  1.78000e-04
 Reference value :  1.78000e-04
 Reference value :  1.78000e-04
 Reference value :  1.78000e-04
 Reference value :  1.78000e-04
 Reference value :  1.78000e-04
 Reference value :  1.78000e-04
 Reference value :  1.78000e-04
 Reference value :  1.78001e-04
 Reference value :  1.78001e-04
 Reference value :  1.78001e-04
 Reference value :  1.78002e-04
 Reference value :  1.78003e-04
 Reference value :  1.78003e-04
 Reference value :  1.78004e-04
 Reference value :  1.78005e-04
 Reference value :  1.78005e-04
 Reference value :  1.78006e-04
 Reference value :  1.78007e-04
 Reference value :  1.78008e-04
 Reference value :  1.78009e-04
 Reference value :  1.78010e-04
 Reference value :  1.78011e-04
 Reference value :  1.78013e-04
 Reference value :  1.78016e-04
 Reference value :  1.78019e-04
 Reference value :  1.78021e-04
 Reference value :  1.78024e-04
 Reference value :  1.78027e-04
 Reference value :  1.78030e-04
 Reference value :  1.78036e-04
 Reference value :  1.78043e-04
 Reference value :  1.78054e-04
 Reference value :  1.78071e-04
 Reference value :  1.78099e-04
 Reference value :  1.78148e-04
 Reference value :  1.78228e-04
 Reference value :  1.78250e-04
 Reference value :  1.78250e-04
 Reference value :  1.78250e-04
 Reference value :  1.78250e-04
 Reference value :  1.78250e-04
 Reference value :  1.78250e-04
 Reference value :  1.78250e-04
 Reference value :  1.78250e-04
 Reference value :  1.78250e-04
 Reference value :  1.78250e-04
 Reference value :  1.78250e-04
 Reference value :  1.78250e-04
 Reference value :  1.78250e-04
 Reference value :  1.78251e-04
 Reference value :  1.78251e-04
 Reference value :  1.78251e-04
 Reference value :  1.78252e-04
 Reference value :  1.78253e-04
 Reference value :  1.78254e-04
 Reference value :  1.78255e-04
 Reference value :  1.78256e-04
 Reference value :  1.78257e-04
 Reference value :  1.78258e-04
 Reference value :  1.78260e-04
 Reference value :  1.78262e-04
 Reference value :  1.78265e-04
 Reference value :  1.78269e-04
 Reference value :  1.78276e-04
 Reference value :  1.78289e-04
 Reference value :  1.78315e-04
 Reference value :  1.78366e-04
 Reference value :  1.78470e-04
 Reference value :  1.78500e-04
No. of Data Rows : 27558
ngspice-44 done
