
Note: Compatibility modes selected: hs a


Circuit: ** sch_path: /home/ece/cace/sar-adc-using-sky130-pdk/runs/run_2025-09-10_23-19-57/parameters/dnl/run_0/sar_output_dnl.sch

option SCALE: Scale is set to 1e-06 for instance and model parameters
option SCALE: Scale is set to 1e-06 for instance and model parameters
option SCALE: Scale is set to 1e-06 for instance and model parameters
option SCALE: Scale is set to 1e-06 for instance and model parameters
Doing analysis at TEMP = 27.000000 and TNOM = 27.000000

Using KLU as Direct Linear Solver
Operating point simulation skipped by 'uic',
  now using transient initial conditions.
 Reference value :  1.00000e-12
 Reference value :  1.02772e-12
 Reference value :  1.08316e-12
 Reference value :  1.19404e-12
 Reference value :  1.33846e-12
 Reference value :  1.62730e-12
 Reference value :  2.20497e-12
 Reference value :  3.04339e-12
 Reference value :  3.94991e-12
 Reference value :  5.16977e-12
 Reference value :  6.91513e-12
 Reference value :  1.00739e-11
 Reference value :  1.37717e-11
 Reference value :  2.04718e-11
 Reference value :  2.74373e-11
 Reference value :  3.63237e-11
 Reference value :  4.73376e-11
 Reference value :  6.39731e-11
 Reference value :  8.45487e-11
 Reference value :  1.00000e-10
 Reference value :  1.01281e-10
 Reference value :  1.03843e-10
 Reference value :  1.08967e-10
 Reference value :  1.19216e-10
 Reference value :  1.39712e-10
 Reference value :  1.80706e-10
 Reference value :  2.62693e-10
 Reference value :  4.14361e-10
 Reference value :  5.82020e-10
 Reference value :  8.52388e-10
 Reference value :  1.22361e-09
 Reference value :  1.75477e-09
 Reference value :  2.53525e-09
 Reference value :  3.29586e-09
 Reference value :  4.33522e-09
 Reference value :  5.32243e-09
 Reference value :  6.30499e-09
 Reference value :  7.59769e-09
 Reference value :  8.89613e-09
 Reference value :  1.00609e-08
 Reference value :  1.08672e-08
 Reference value :  1.17420e-08
 Reference value :  1.26727e-08
 Reference value :  1.37060e-08
 Reference value :  1.57727e-08
 Reference value :  1.87716e-08
 Reference value :  2.27425e-08
 Reference value :  2.74169e-08
 Reference value :  3.12483e-08
 Reference value :  3.52456e-08
 Reference value :  3.91781e-08
 Reference value :  4.31816e-08
 Reference value :  5.11888e-08
 Reference value :  6.59636e-08
 Reference value :  9.26355e-08
 Reference value :  1.45979e-07
 Reference value :  2.07147e-07
 Reference value :  2.50100e-07
 Reference value :  2.50110e-07
 Reference value :  2.50130e-07
 Reference value :  2.50170e-07
 Reference value :  2.50200e-07
 Reference value :  2.50201e-07
 Reference value :  2.50202e-07
 Reference value :  2.50204e-07
 Reference value :  2.50208e-07
 Reference value :  2.50216e-07
 Reference value :  2.50233e-07
 Reference value :  2.50267e-07
 Reference value :  2.50335e-07
 Reference value :  2.50428e-07
 Reference value :  2.50611e-07
 Reference value :  2.50792e-07
 Reference value :  2.51135e-07
 Reference value :  2.51558e-07
 Reference value :  2.52259e-07
 Reference value :  2.52900e-07
 Reference value :  2.53739e-07
 Reference value :  2.54754e-07
 Reference value :  2.55923e-07
 Reference value :  2.57000e-07
 Reference value :  2.58032e-07
 Reference value :  2.59197e-07
 Reference value :  2.60299e-07
 Reference value :  2.62113e-07
 Reference value :  2.64722e-07
 Reference value :  2.67421e-07
 Reference value :  2.72043e-07
 Reference value :  2.78807e-07
 Reference value :  2.92334e-07
 Reference value :  3.19387e-07
 Reference value :  3.70349e-07
 Reference value :  4.72273e-07
 Reference value :  5.00000e-07
 Reference value :  5.00010e-07
 Reference value :  5.00030e-07
 Reference value :  5.00070e-07
 Reference value :  5.00100e-07
 Reference value :  5.00104e-07
 Reference value :  5.00113e-07
 Reference value :  5.00130e-07
 Reference value :  5.00164e-07
 Reference value :  5.00232e-07
 Reference value :  5.00369e-07
 Reference value :  5.00560e-07
 Reference value :  5.00941e-07
 Reference value :  5.01536e-07
 Reference value :  5.02163e-07
 Reference value :  5.02854e-07
 Reference value :  5.03676e-07
 Reference value :  5.04428e-07
 Reference value :  5.05342e-07
 Reference value :  5.06300e-07
 Reference value :  5.07291e-07
 Reference value :  5.08691e-07
 Reference value :  5.10115e-07
 Reference value :  5.12675e-07
 Reference value :  5.15600e-07
 Reference value :  5.17748e-07
 Reference value :  5.20194e-07
 Reference value :  5.22649e-07
 Reference value :  5.25203e-07
 Reference value :  5.28411e-07
 Reference value :  5.33033e-07
 Reference value :  5.39375e-07
 Reference value :  5.48758e-07
 Reference value :  5.67524e-07
 Reference value :  5.94942e-07
 Reference value :  6.46001e-07
 Reference value :  7.44577e-07
 Reference value :  7.50100e-07
 Reference value :  7.50110e-07
 Reference value :  7.50130e-07
 Reference value :  7.50170e-07
 Reference value :  7.50200e-07
 Reference value :  7.50201e-07
 Reference value :  7.50202e-07
 Reference value :  7.50205e-07
 Reference value :  7.50212e-07
 Reference value :  7.50224e-07
 Reference value :  7.50249e-07
 Reference value :  7.50298e-07
 Reference value :  7.50396e-07
 Reference value :  7.50594e-07
 Reference value :  7.50984e-07
 Reference value :  7.51569e-07
 Reference value :  7.52239e-07
 Reference value :  7.52985e-07
 Reference value :  7.53829e-07
 Reference value :  7.54923e-07
 Reference value :  7.55816e-07
 Reference value :  7.56877e-07
 Reference value :  7.57785e-07
 Reference value :  7.58768e-07
 Reference value :  7.59882e-07
 Reference value :  7.61132e-07
 Reference value :  7.63633e-07
 Reference value :  7.66447e-07
 Reference value :  7.70881e-07
 Reference value :  7.76848e-07
 Reference value :  7.88781e-07
 Reference value :  8.12649e-07
 Reference value :  8.60150e-07
 Reference value :  9.55153e-07
 Reference value :  1.00000e-06
 Reference value :  1.00001e-06
 Reference value :  1.00003e-06
 Reference value :  1.00007e-06
 Reference value :  1.00010e-06
 Reference value :  1.00010e-06
 Reference value :  1.00011e-06
 Reference value :  1.00013e-06
 Reference value :  1.00016e-06
 Reference value :  1.00023e-06
 Reference value :  1.00037e-06
 Reference value :  1.00056e-06
 Reference value :  1.00094e-06
 Reference value :  1.00153e-06
 Reference value :  1.00216e-06
 Reference value :  1.00285e-06
 Reference value :  1.00357e-06
 Reference value :  1.00432e-06
 Reference value :  1.00516e-06
 Reference value :  1.00607e-06
 Reference value :  1.00702e-06
 Reference value :  1.00795e-06
 Reference value :  1.00904e-06
 Reference value :  1.01001e-06
 Reference value :  1.01108e-06
 Reference value :  1.01259e-06
 Reference value :  1.01427e-06
 Reference value :  1.01717e-06
 Reference value :  1.02013e-06
 Reference value :  1.02249e-06
 Reference value :  1.02462e-06
 Reference value :  1.02615e-06
 Reference value :  1.02771e-06
 Reference value :  1.02917e-06
 Reference value :  1.03074e-06
 Reference value :  1.03251e-06
 Reference value :  1.03500e-06
 Reference value :  1.03757e-06
 Reference value :  1.04224e-06
 Reference value :  1.04907e-06
 Reference value :  1.05961e-06
 Reference value :  1.07738e-06
 Reference value :  1.10517e-06
 Reference value :  1.14496e-06
 Reference value :  1.22456e-06
 Reference value :  1.25010e-06
 Reference value :  1.25011e-06
 Reference value :  1.25013e-06
 Reference value :  1.25017e-06
 Reference value :  1.25020e-06
 Reference value :  1.25020e-06
 Reference value :  1.25020e-06
 Reference value :  1.25021e-06
 Reference value :  1.25021e-06
 Reference value :  1.25022e-06
 Reference value :  1.25025e-06
 Reference value :  1.25030e-06
 Reference value :  1.25040e-06
 Reference value :  1.25059e-06
 Reference value :  1.25094e-06
 Reference value :  1.25156e-06
 Reference value :  1.25219e-06
 Reference value :  1.25296e-06
 Reference value :  1.25378e-06
 Reference value :  1.25486e-06
 Reference value :  1.25579e-06
 Reference value :  1.25687e-06
 Reference value :  1.25800e-06
 Reference value :  1.25906e-06
 Reference value :  1.26088e-06
 Reference value :  1.26261e-06
 Reference value :  1.26545e-06
 Reference value :  1.26899e-06
 Reference value :  1.27436e-06
 Reference value :  1.28510e-06
 Reference value :  1.30371e-06
 Reference value :  1.32472e-06
 Reference value :  1.34546e-06
 Reference value :  1.36520e-06
 Reference value :  1.37962e-06
 Reference value :  1.39285e-06
 Reference value :  1.40324e-06
 Reference value :  1.41101e-06
 Reference value :  1.41979e-06
 Reference value :  1.43473e-06
 Reference value :  1.45194e-06
 Reference value :  1.47957e-06
 Reference value :  1.50000e-06
 Reference value :  1.50001e-06
 Reference value :  1.50003e-06
 Reference value :  1.50007e-06
 Reference value :  1.50010e-06
 Reference value :  1.50010e-06
 Reference value :  1.50011e-06
 Reference value :  1.50013e-06
 Reference value :  1.50016e-06
 Reference value :  1.50023e-06
 Reference value :  1.50037e-06
 Reference value :  1.50055e-06
 Reference value :  1.50092e-06
 Reference value :  1.50160e-06
 Reference value :  1.50223e-06
 Reference value :  1.50286e-06
 Reference value :  1.50358e-06
 Reference value :  1.50432e-06
 Reference value :  1.50516e-06
 Reference value :  1.50607e-06
 Reference value :  1.50712e-06
 Reference value :  1.50846e-06
 Reference value :  1.50983e-06
 Reference value :  1.51140e-06
 Reference value :  1.51281e-06
 Reference value :  1.51428e-06
 Reference value :  1.51634e-06
 Reference value :  1.51824e-06
 Reference value :  1.52029e-06
 Reference value :  1.52329e-06
 Reference value :  1.52628e-06
 Reference value :  1.53181e-06
 Reference value :  1.53946e-06
 Reference value :  1.55220e-06
 Reference value :  1.57439e-06
 Reference value :  1.61040e-06
 Reference value :  1.67784e-06
 Reference value :  1.75010e-06
 Reference value :  1.75011e-06
 Reference value :  1.75013e-06
 Reference value :  1.75017e-06
 Reference value :  1.75020e-06
 Reference value :  1.75020e-06
 Reference value :  1.75020e-06
 Reference value :  1.75021e-06
 Reference value :  1.75021e-06
 Reference value :  1.75022e-06
 Reference value :  1.75025e-06
 Reference value :  1.75030e-06
 Reference value :  1.75040e-06
 Reference value :  1.75059e-06
 Reference value :  1.75094e-06
 Reference value :  1.75155e-06
 Reference value :  1.75218e-06
 Reference value :  1.75295e-06
 Reference value :  1.75378e-06
 Reference value :  1.75485e-06
 Reference value :  1.75576e-06
 Reference value :  1.75682e-06
 Reference value :  1.75775e-06
 Reference value :  1.75874e-06
 Reference value :  1.75988e-06
 Reference value :  1.76115e-06
 Reference value :  1.76246e-06
 Reference value :  1.76424e-06
 Reference value :  1.76648e-06
 Reference value :  1.76924e-06
 Reference value :  1.77292e-06
 Reference value :  1.77808e-06
 Reference value :  1.78842e-06
 Reference value :  1.80626e-06
 Reference value :  1.84195e-06
 Reference value :  1.91334e-06
 Reference value :  2.00000e-06
 Reference value :  2.00001e-06
 Reference value :  2.00003e-06
 Reference value :  2.00007e-06
 Reference value :  2.00010e-06
 Reference value :  2.00010e-06
 Reference value :  2.00011e-06
 Reference value :  2.00013e-06
 Reference value :  2.00016e-06
 Reference value :  2.00023e-06
 Reference value :  2.00037e-06
 Reference value :  2.00055e-06
 Reference value :  2.00092e-06
 Reference value :  2.00160e-06
 Reference value :  2.00223e-06
 Reference value :  2.00291e-06
 Reference value :  2.00363e-06
 Reference value :  2.00438e-06
 Reference value :  2.00522e-06
 Reference value :  2.00613e-06
 Reference value :  2.00697e-06
 Reference value :  2.00786e-06
 Reference value :  2.00875e-06
 Reference value :  2.00971e-06
 Reference value :  2.01060e-06
 Reference value :  2.01185e-06
 Reference value :  2.01315e-06
 Reference value :  2.01540e-06
 Reference value :  2.01787e-06
 Reference value :  2.01971e-06
 Reference value :  2.02176e-06
 Reference value :  2.02372e-06
 Reference value :  2.02521e-06
 Reference value :  2.02661e-06
 Reference value :  2.02809e-06
 Reference value :  2.02967e-06
 Reference value :  2.03147e-06
 Reference value :  2.03332e-06
 Reference value :  2.03647e-06
 Reference value :  2.03945e-06
 Reference value :  2.04541e-06
 Reference value :  2.05173e-06
 Reference value :  2.06013e-06
 Reference value :  2.06795e-06
 Reference value :  2.07209e-06
 Reference value :  2.07614e-06
 Reference value :  2.08032e-06
 Reference value :  2.08463e-06
 Reference value :  2.09086e-06
 Reference value :  2.09897e-06
 Reference value :  2.11006e-06
 Reference value :  2.12610e-06
 Reference value :  2.14840e-06
 Reference value :  2.18102e-06
 Reference value :  2.22808e-06
 Reference value :  2.25010e-06
 Reference value :  2.25011e-06
 Reference value :  2.25013e-06
 Reference value :  2.25017e-06
 Reference value :  2.25020e-06
 Reference value :  2.25020e-06
 Reference value :  2.25020e-06
 Reference value :  2.25021e-06
 Reference value :  2.25021e-06
 Reference value :  2.25022e-06
 Reference value :  2.25025e-06
 Reference value :  2.25030e-06
 Reference value :  2.25040e-06
 Reference value :  2.25059e-06
 Reference value :  2.25094e-06
 Reference value :  2.25155e-06
 Reference value :  2.25218e-06
 Reference value :  2.25295e-06
 Reference value :  2.25377e-06
 Reference value :  2.25484e-06
 Reference value :  2.25579e-06
 Reference value :  2.25687e-06
 Reference value :  2.25798e-06
 Reference value :  2.25905e-06
 Reference value :  2.26085e-06
 Reference value :  2.26259e-06
 Reference value :  2.26541e-06
 Reference value :  2.26895e-06
 Reference value :  2.27428e-06
 Reference value :  2.28492e-06
 Reference value :  2.30346e-06
 Reference value :  2.33731e-06
 Reference value :  2.40501e-06
 Reference value :  2.46929e-06
 Reference value :  2.50000e-06
 Reference value :  2.50001e-06
 Reference value :  2.50003e-06
 Reference value :  2.50007e-06
 Reference value :  2.50010e-06
 Reference value :  2.50010e-06
 Reference value :  2.50011e-06
 Reference value :  2.50013e-06
 Reference value :  2.50016e-06
 Reference value :  2.50023e-06
 Reference value :  2.50037e-06
 Reference value :  2.50055e-06
 Reference value :  2.50092e-06
 Reference value :  2.50160e-06
 Reference value :  2.50223e-06
 Reference value :  2.50291e-06
 Reference value :  2.50363e-06
 Reference value :  2.50438e-06
 Reference value :  2.50524e-06
 Reference value :  2.50616e-06
 Reference value :  2.50719e-06
 Reference value :  2.50853e-06
 Reference value :  2.50991e-06
 Reference value :  2.51147e-06
 Reference value :  2.51303e-06
 Reference value :  2.51463e-06
 Reference value :  2.51656e-06
 Reference value :  2.51830e-06
 Reference value :  2.52026e-06
 Reference value :  2.52237e-06
 Reference value :  2.52661e-06
 Reference value :  2.53479e-06
 Reference value :  2.54850e-06
 Reference value :  2.57593e-06
 Reference value :  2.63079e-06
 Reference value :  2.74050e-06
 Reference value :  2.75010e-06
 Reference value :  2.75011e-06
 Reference value :  2.75013e-06
 Reference value :  2.75017e-06
 Reference value :  2.75020e-06
 Reference value :  2.75020e-06
 Reference value :  2.75020e-06
 Reference value :  2.75021e-06
 Reference value :  2.75021e-06
 Reference value :  2.75022e-06
 Reference value :  2.75025e-06
 Reference value :  2.75030e-06
 Reference value :  2.75039e-06
 Reference value :  2.75059e-06
 Reference value :  2.75093e-06
 Reference value :  2.75154e-06
 Reference value :  2.75216e-06
 Reference value :  2.75294e-06
 Reference value :  2.75375e-06
 Reference value :  2.75482e-06
 Reference value :  2.75575e-06
 Reference value :  2.75683e-06
 Reference value :  2.75777e-06
 Reference value :  2.75877e-06
 Reference value :  2.75990e-06
 Reference value :  2.76118e-06
 Reference value :  2.76373e-06
 Reference value :  2.76654e-06
 Reference value :  2.77107e-06
 Reference value :  2.77718e-06
 Reference value :  2.78941e-06
 Reference value :  2.81387e-06
 Reference value :  2.86278e-06
 Reference value :  2.96060e-06
 Reference value :  3.00000e-06
 Reference value :  3.00001e-06
 Reference value :  3.00003e-06
 Reference value :  3.00007e-06
 Reference value :  3.00010e-06
 Reference value :  3.00010e-06
 Reference value :  3.00011e-06
 Reference value :  3.00013e-06
 Reference value :  3.00016e-06
 Reference value :  3.00023e-06
 Reference value :  3.00037e-06
 Reference value :  3.00055e-06
 Reference value :  3.00092e-06
 Reference value :  3.00160e-06
 Reference value :  3.00223e-06
 Reference value :  3.00291e-06
 Reference value :  3.00363e-06
 Reference value :  3.00439e-06
 Reference value :  3.00523e-06
 Reference value :  3.00615e-06
 Reference value :  3.00710e-06
 Reference value :  3.00812e-06
 Reference value :  3.00918e-06
 Reference value :  3.01020e-06
 Reference value :  3.01129e-06
 Reference value :  3.01274e-06
 Reference value :  3.01454e-06
 Reference value :  3.01749e-06
 Reference value :  3.02028e-06
 Reference value :  3.02266e-06
 Reference value :  3.02457e-06
 Reference value :  3.02637e-06
 Reference value :  3.02839e-06
 Reference value :  3.03027e-06
 Reference value :  3.03255e-06
 Reference value :  3.03485e-06
 Reference value :  3.03824e-06
 Reference value :  3.04232e-06
 Reference value :  3.05010e-06
 Reference value :  3.06238e-06
 Reference value :  3.08134e-06
 Reference value :  3.11363e-06
 Reference value :  3.17458e-06
 Reference value :  3.23439e-06
 Reference value :  3.25010e-06
 Reference value :  3.25011e-06
 Reference value :  3.25013e-06
 Reference value :  3.25017e-06
 Reference value :  3.25020e-06
 Reference value :  3.25020e-06
 Reference value :  3.25020e-06
 Reference value :  3.25021e-06
 Reference value :  3.25021e-06
 Reference value :  3.25022e-06
 Reference value :  3.25025e-06
 Reference value :  3.25030e-06
 Reference value :  3.25039e-06
 Reference value :  3.25059e-06
 Reference value :  3.25092e-06
 Reference value :  3.25154e-06
 Reference value :  3.25216e-06
 Reference value :  3.25294e-06
 Reference value :  3.25375e-06
 Reference value :  3.25482e-06
 Reference value :  3.25578e-06
 Reference value :  3.25687e-06
 Reference value :  3.25797e-06
 Reference value :  3.25905e-06
 Reference value :  3.26083e-06
 Reference value :  3.26258e-06
 Reference value :  3.26540e-06
 Reference value :  3.26893e-06
 Reference value :  3.27424e-06
 Reference value :  3.28485e-06
 Reference value :  3.30344e-06
 Reference value :  3.33735e-06
 Reference value :  3.40516e-06
 Reference value :  3.50000e-06
 Reference value :  3.50001e-06
 Reference value :  3.50003e-06
 Reference value :  3.50007e-06
 Reference value :  3.50010e-06
 Reference value :  3.50010e-06
 Reference value :  3.50011e-06
 Reference value :  3.50013e-06
 Reference value :  3.50016e-06
 Reference value :  3.50023e-06
 Reference value :  3.50037e-06
 Reference value :  3.50056e-06
 Reference value :  3.50093e-06
 Reference value :  3.50161e-06
 Reference value :  3.50223e-06
 Reference value :  3.50291e-06
 Reference value :  3.50362e-06
 Reference value :  3.50438e-06
 Reference value :  3.50523e-06
 Reference value :  3.50615e-06
 Reference value :  3.50711e-06
 Reference value :  3.50846e-06
 Reference value :  3.50978e-06
 Reference value :  3.51140e-06
 Reference value :  3.51288e-06
 Reference value :  3.51443e-06
 Reference value :  3.51595e-06
 Reference value :  3.51766e-06
 Reference value :  3.51944e-06
 Reference value :  3.52136e-06
 Reference value :  3.52521e-06
 Reference value :  3.53288e-06
 Reference value :  3.54583e-06
 Reference value :  3.57173e-06
 Reference value :  3.62354e-06
 Reference value :  3.72715e-06
 Reference value :  3.75010e-06
 Reference value :  3.75011e-06
 Reference value :  3.75013e-06
 Reference value :  3.75017e-06
 Reference value :  3.75020e-06
 Reference value :  3.75020e-06
 Reference value :  3.75020e-06
 Reference value :  3.75021e-06
 Reference value :  3.75021e-06
 Reference value :  3.75022e-06
 Reference value :  3.75025e-06
 Reference value :  3.75030e-06
 Reference value :  3.75039e-06
 Reference value :  3.75059e-06
 Reference value :  3.75093e-06
 Reference value :  3.75154e-06
 Reference value :  3.75216e-06
 Reference value :  3.75294e-06
 Reference value :  3.75375e-06
 Reference value :  3.75482e-06
 Reference value :  3.75574e-06
 Reference value :  3.75681e-06
 Reference value :  3.75775e-06
 Reference value :  3.75874e-06
 Reference value :  3.75987e-06
 Reference value :  3.76114e-06
 Reference value :  3.76368e-06
 Reference value :  3.76646e-06
 Reference value :  3.77096e-06
 Reference value :  3.77696e-06
 Reference value :  3.78895e-06
 Reference value :  3.81295e-06
 Reference value :  3.86094e-06
 Reference value :  3.95691e-06
 Reference value :  4.00000e-06
 Reference value :  4.00001e-06
 Reference value :  4.00003e-06
 Reference value :  4.00007e-06
 Reference value :  4.00010e-06
 Reference value :  4.00010e-06
 Reference value :  4.00011e-06
 Reference value :  4.00013e-06
 Reference value :  4.00016e-06
 Reference value :  4.00023e-06
 Reference value :  4.00037e-06
 Reference value :  4.00055e-06
 Reference value :  4.00092e-06
 Reference value :  4.00160e-06
 Reference value :  4.00223e-06
 Reference value :  4.00291e-06
 Reference value :  4.00363e-06
 Reference value :  4.00439e-06
 Reference value :  4.00523e-06
 Reference value :  4.00615e-06
 Reference value :  4.00717e-06
 Reference value :  4.00818e-06
 Reference value :  4.00913e-06
 Reference value :  4.01013e-06
 Reference value :  4.01118e-06
 Reference value :  4.01254e-06
 Reference value :  4.01442e-06
 Reference value :  4.01728e-06
 Reference value :  4.02018e-06
 Reference value :  4.02255e-06
 Reference value :  4.02447e-06
 Reference value :  4.02627e-06
 Reference value :  4.02828e-06
 Reference value :  4.03017e-06
 Reference value :  4.03236e-06
 Reference value :  4.03473e-06
 Reference value :  4.03807e-06
 Reference value :  4.04203e-06
 Reference value :  4.04942e-06
 Reference value :  4.06085e-06
 Reference value :  4.07343e-06
 Reference value :  4.08518e-06
 Reference value :  4.09723e-06
 Reference value :  4.10547e-06
 Reference value :  4.11455e-06
 Reference value :  4.12305e-06
 Reference value :  4.13029e-06
 Reference value :  4.13920e-06
 Reference value :  4.15702e-06
 Reference value :  4.17634e-06
 Reference value :  4.19941e-06
 Reference value :  4.22155e-06
 Reference value :  4.23340e-06
 Reference value :  4.24499e-06
 Reference value :  4.25010e-06
 Reference value :  4.25011e-06
 Reference value :  4.25013e-06
 Reference value :  4.25017e-06
 Reference value :  4.25020e-06
 Reference value :  4.25020e-06
 Reference value :  4.25020e-06
 Reference value :  4.25021e-06
 Reference value :  4.25021e-06
 Reference value :  4.25022e-06
 Reference value :  4.25025e-06
 Reference value :  4.25030e-06
 Reference value :  4.25039e-06
 Reference value :  4.25059e-06
 Reference value :  4.25092e-06
 Reference value :  4.25154e-06
 Reference value :  4.25216e-06
 Reference value :  4.25294e-06
 Reference value :  4.25375e-06
 Reference value :  4.25481e-06
 Reference value :  4.25577e-06
 Reference value :  4.25686e-06
 Reference value :  4.25796e-06
 Reference value :  4.25903e-06
 Reference value :  4.26082e-06
 Reference value :  4.26255e-06
 Reference value :  4.26539e-06
 Reference value :  4.26890e-06
 Reference value :  4.27415e-06
 Reference value :  4.28466e-06
 Reference value :  4.30335e-06
 Reference value :  4.33727e-06
 Reference value :  4.40513e-06
 Reference value :  4.50000e-06
 Reference value :  4.50001e-06
 Reference value :  4.50003e-06
 Reference value :  4.50007e-06
 Reference value :  4.50010e-06
 Reference value :  4.50010e-06
 Reference value :  4.50011e-06
 Reference value :  4.50013e-06
 Reference value :  4.50016e-06
 Reference value :  4.50023e-06
 Reference value :  4.50037e-06
 Reference value :  4.50056e-06
 Reference value :  4.50092e-06
 Reference value :  4.50161e-06
 Reference value :  4.50223e-06
 Reference value :  4.50291e-06
 Reference value :  4.50362e-06
 Reference value :  4.50438e-06
 Reference value :  4.50523e-06
 Reference value :  4.50615e-06
 Reference value :  4.50711e-06
 Reference value :  4.50846e-06
 Reference value :  4.50977e-06
 Reference value :  4.51128e-06
 Reference value :  4.51281e-06
 Reference value :  4.51436e-06
 Reference value :  4.51582e-06
 Reference value :  4.51740e-06
 Reference value :  4.51901e-06
 Reference value :  4.52087e-06
 Reference value :  4.52460e-06
 Reference value :  4.53061e-06
 Reference value :  4.54264e-06
 Reference value :  4.56669e-06
 Reference value :  4.61480e-06
 Reference value :  4.71101e-06
 Reference value :  4.75010e-06
 Reference value :  4.75011e-06
 Reference value :  4.75013e-06
 Reference value :  4.75017e-06
 Reference value :  4.75020e-06
 Reference value :  4.75020e-06
 Reference value :  4.75020e-06
 Reference value :  4.75021e-06
 Reference value :  4.75021e-06
 Reference value :  4.75022e-06
 Reference value :  4.75025e-06
 Reference value :  4.75030e-06
 Reference value :  4.75039e-06
 Reference value :  4.75059e-06
 Reference value :  4.75092e-06
 Reference value :  4.75154e-06
 Reference value :  4.75216e-06
 Reference value :  4.75294e-06
 Reference value :  4.75375e-06
 Reference value :  4.75481e-06
 Reference value :  4.75573e-06
 Reference value :  4.75680e-06
 Reference value :  4.75774e-06
 Reference value :  4.75873e-06
 Reference value :  4.75986e-06
 Reference value :  4.76113e-06
 Reference value :  4.76366e-06
 Reference value :  4.76644e-06
 Reference value :  4.77093e-06
 Reference value :  4.77689e-06
 Reference value :  4.78883e-06
 Reference value :  4.81270e-06
 Reference value :  4.86045e-06
 Reference value :  4.95594e-06
 Reference value :  5.00000e-06
 Reference value :  5.00001e-06
 Reference value :  5.00003e-06
 Reference value :  5.00007e-06
 Reference value :  5.00010e-06
 Reference value :  5.00010e-06
 Reference value :  5.00011e-06
 Reference value :  5.00013e-06
 Reference value :  5.00016e-06
 Reference value :  5.00023e-06
 Reference value :  5.00037e-06
 Reference value :  5.00055e-06
 Reference value :  5.00092e-06
 Reference value :  5.00160e-06
 Reference value :  5.00223e-06
 Reference value :  5.00291e-06
 Reference value :  5.00364e-06
 Reference value :  5.00440e-06
 Reference value :  5.00525e-06
 Reference value :  5.00617e-06
 Reference value :  5.00718e-06
 Reference value :  5.00822e-06
 Reference value :  5.00909e-06
 Reference value :  5.01014e-06
 Reference value :  5.01115e-06
 Reference value :  5.01249e-06
 Reference value :  5.01444e-06
 Reference value :  5.01734e-06
 Reference value :  5.02026e-06
 Reference value :  5.02266e-06
 Reference value :  5.02460e-06
 Reference value :  5.02642e-06
 Reference value :  5.02845e-06
 Reference value :  5.03034e-06
 Reference value :  5.03278e-06
 Reference value :  5.03500e-06
 Reference value :  5.03850e-06
 Reference value :  5.04295e-06
 Reference value :  5.04859e-06
 Reference value :  5.05560e-06
 Reference value :  5.06321e-06
 Reference value :  5.07026e-06
 Reference value :  5.07687e-06
 Reference value :  5.08393e-06
 Reference value :  5.09138e-06
 Reference value :  5.09946e-06
 Reference value :  5.10824e-06
 Reference value :  5.11643e-06
 Reference value :  5.13282e-06
 Reference value :  5.15552e-06
 Reference value :  5.19701e-06
 Reference value :  5.25010e-06
 Reference value :  5.25011e-06
 Reference value :  5.25013e-06
 Reference value :  5.25017e-06
 Reference value :  5.25020e-06
 Reference value :  5.25020e-06
 Reference value :  5.25020e-06
 Reference value :  5.25021e-06
 Reference value :  5.25021e-06
 Reference value :  5.25022e-06
 Reference value :  5.25025e-06
 Reference value :  5.25030e-06
 Reference value :  5.25040e-06
 Reference value :  5.25059e-06
 Reference value :  5.25094e-06
 Reference value :  5.25154e-06
 Reference value :  5.25218e-06
 Reference value :  5.25294e-06
 Reference value :  5.25376e-06
 Reference value :  5.25482e-06
 Reference value :  5.25570e-06
 Reference value :  5.25672e-06
 Reference value :  5.25770e-06
 Reference value :  5.25872e-06
 Reference value :  5.26043e-06
 Reference value :  5.26203e-06
 Reference value :  5.26488e-06
 Reference value :  5.26799e-06
 Reference value :  5.27303e-06
 Reference value :  5.28226e-06
 Reference value :  5.30070e-06
 Reference value :  5.33760e-06
 Reference value :  5.41138e-06
 Reference value :  5.50000e-06
 Reference value :  5.50001e-06
 Reference value :  5.50003e-06
 Reference value :  5.50007e-06
 Reference value :  5.50010e-06
 Reference value :  5.50010e-06
 Reference value :  5.50011e-06
 Reference value :  5.50013e-06
 Reference value :  5.50016e-06
 Reference value :  5.50023e-06
 Reference value :  5.50037e-06
 Reference value :  5.50056e-06
 Reference value :  5.50093e-06
 Reference value :  5.50161e-06
 Reference value :  5.50223e-06
 Reference value :  5.50286e-06
 Reference value :  5.50357e-06
 Reference value :  5.50431e-06
 Reference value :  5.50516e-06
 Reference value :  5.50606e-06
 Reference value :  5.50711e-06
 Reference value :  5.50844e-06
 Reference value :  5.50981e-06
 Reference value :  5.51137e-06
 Reference value :  5.51290e-06
 Reference value :  5.51445e-06
 Reference value :  5.51592e-06
 Reference value :  5.51751e-06
 Reference value :  5.51919e-06
 Reference value :  5.52112e-06
 Reference value :  5.52488e-06
 Reference value :  5.53036e-06
 Reference value :  5.54133e-06
 Reference value :  5.56326e-06
 Reference value :  5.60547e-06
 Reference value :  5.68991e-06
 Reference value :  5.75010e-06
 Reference value :  5.75011e-06
 Reference value :  5.75013e-06
 Reference value :  5.75017e-06
 Reference value :  5.75020e-06
 Reference value :  5.75020e-06
 Reference value :  5.75020e-06
 Reference value :  5.75021e-06
 Reference value :  5.75021e-06
 Reference value :  5.75022e-06
 Reference value :  5.75025e-06
 Reference value :  5.75030e-06
 Reference value :  5.75039e-06
 Reference value :  5.75059e-06
 Reference value :  5.75093e-06
 Reference value :  5.75154e-06
 Reference value :  5.75216e-06
 Reference value :  5.75294e-06
 Reference value :  5.75375e-06
 Reference value :  5.75481e-06
 Reference value :  5.75574e-06
 Reference value :  5.75682e-06
 Reference value :  5.75776e-06
 Reference value :  5.75876e-06
 Reference value :  5.75990e-06
 Reference value :  5.76117e-06
 Reference value :  5.76247e-06
 Reference value :  5.76424e-06
 Reference value :  5.76654e-06
 Reference value :  5.76930e-06
 Reference value :  5.77302e-06
 Reference value :  5.77824e-06
 Reference value :  5.78868e-06
 Reference value :  5.80777e-06
 Reference value :  5.84596e-06
 Reference value :  5.92234e-06
 Reference value :  6.00000e-06
 Reference value :  6.00001e-06
 Reference value :  6.00003e-06
 Reference value :  6.00007e-06
 Reference value :  6.00010e-06
 Reference value :  6.00010e-06
 Reference value :  6.00011e-06
 Reference value :  6.00013e-06
 Reference value :  6.00016e-06
 Reference value :  6.00023e-06
 Reference value :  6.00037e-06
 Reference value :  6.00055e-06
 Reference value :  6.00092e-06
 Reference value :  6.00160e-06
 Reference value :  6.00223e-06
 Reference value :  6.00291e-06
 Reference value :  6.00363e-06
 Reference value :  6.00438e-06
 Reference value :  6.00523e-06
 Reference value :  6.00613e-06
 Reference value :  6.00708e-06
 Reference value :  6.00794e-06
 Reference value :  6.00880e-06
 Reference value :  6.00981e-06
 Reference value :  6.01077e-06
 Reference value :  6.01209e-06
 Reference value :  6.01392e-06
 Reference value :  6.01570e-06
 Reference value :  6.01751e-06
 Reference value :  6.01955e-06
 Reference value :  6.02145e-06
 Reference value :  6.02334e-06
 Reference value :  6.02473e-06
 Reference value :  6.02600e-06
 Reference value :  6.02738e-06
 Reference value :  6.02876e-06
 Reference value :  6.03019e-06
 Reference value :  6.03182e-06
 Reference value :  6.03370e-06
 Reference value :  6.03587e-06
 Reference value :  6.03754e-06
 Reference value :  6.03935e-06
 Reference value :  6.04162e-06
 Reference value :  6.04368e-06
 Reference value :  6.04780e-06
 Reference value :  6.05330e-06
 Reference value :  6.06215e-06
 Reference value :  6.07325e-06
 Reference value :  6.08707e-06
 Reference value :  6.10913e-06
 Reference value :  6.15326e-06
 Reference value :  6.21700e-06
 Reference value :  6.25010e-06
 Reference value :  6.25011e-06
 Reference value :  6.25013e-06
 Reference value :  6.25017e-06
 Reference value :  6.25020e-06
 Reference value :  6.25020e-06
 Reference value :  6.25020e-06
 Reference value :  6.25021e-06
 Reference value :  6.25021e-06
 Reference value :  6.25022e-06
 Reference value :  6.25025e-06
 Reference value :  6.25030e-06
 Reference value :  6.25039e-06
 Reference value :  6.25059e-06
 Reference value :  6.25093e-06
 Reference value :  6.25154e-06
 Reference value :  6.25216e-06
 Reference value :  6.25294e-06
 Reference value :  6.25375e-06
 Reference value :  6.25481e-06
 Reference value :  6.25578e-06
 Reference value :  6.25688e-06
 Reference value :  6.25797e-06
 Reference value :  6.25905e-06
 Reference value :  6.26082e-06
 Reference value :  6.26258e-06
 Reference value :  6.26539e-06
 Reference value :  6.26893e-06
 Reference value :  6.27422e-06
 Reference value :  6.28481e-06
 Reference value :  6.30320e-06
 Reference value :  6.33669e-06
 Reference value :  6.40366e-06
 Reference value :  6.50000e-06
 Reference value :  6.50001e-06
 Reference value :  6.50003e-06
 Reference value :  6.50007e-06
 Reference value :  6.50010e-06
 Reference value :  6.50010e-06
 Reference value :  6.50011e-06
 Reference value :  6.50013e-06
 Reference value :  6.50016e-06
 Reference value :  6.50023e-06
 Reference value :  6.50037e-06
 Reference value :  6.50056e-06
 Reference value :  6.50093e-06
 Reference value :  6.50161e-06
 Reference value :  6.50223e-06
 Reference value :  6.50291e-06
 Reference value :  6.50362e-06
 Reference value :  6.50438e-06
 Reference value :  6.50523e-06
 Reference value :  6.50615e-06
 Reference value :  6.50711e-06
 Reference value :  6.50847e-06
 Reference value :  6.50978e-06
 Reference value :  6.51141e-06
 Reference value :  6.51290e-06
 Reference value :  6.51445e-06
 Reference value :  6.51588e-06
 Reference value :  6.51747e-06
 Reference value :  6.51911e-06
 Reference value :  6.52101e-06
 Reference value :  6.52479e-06
 Reference value :  6.53047e-06
 Reference value :  6.54183e-06
 Reference value :  6.56455e-06
 Reference value :  6.60998e-06
 Reference value :  6.70085e-06
 Reference value :  6.75010e-06
 Reference value :  6.75011e-06
 Reference value :  6.75013e-06
 Reference value :  6.75017e-06
 Reference value :  6.75020e-06
 Reference value :  6.75020e-06
 Reference value :  6.75020e-06
 Reference value :  6.75021e-06
 Reference value :  6.75021e-06
 Reference value :  6.75022e-06
 Reference value :  6.75025e-06
 Reference value :  6.75030e-06
 Reference value :  6.75039e-06
 Reference value :  6.75059e-06
 Reference value :  6.75093e-06
 Reference value :  6.75154e-06
 Reference value :  6.75216e-06
 Reference value :  6.75294e-06
 Reference value :  6.75375e-06
 Reference value :  6.75481e-06
 Reference value :  6.75575e-06
 Reference value :  6.75682e-06
 Reference value :  6.75777e-06
 Reference value :  6.75877e-06
 Reference value :  6.75991e-06
 Reference value :  6.76118e-06
 Reference value :  6.76373e-06
 Reference value :  6.76655e-06
 Reference value :  6.77108e-06
 Reference value :  6.77721e-06
 Reference value :  6.78948e-06
 Reference value :  6.81400e-06
 Reference value :  6.86306e-06
 Reference value :  6.96117e-06
 Reference value :  7.00000e-06
 Reference value :  7.00001e-06
 Reference value :  7.00003e-06
 Reference value :  7.00007e-06
 Reference value :  7.00010e-06
 Reference value :  7.00010e-06
 Reference value :  7.00011e-06
 Reference value :  7.00013e-06
 Reference value :  7.00016e-06
 Reference value :  7.00023e-06
 Reference value :  7.00037e-06
 Reference value :  7.00055e-06
 Reference value :  7.00092e-06
 Reference value :  7.00160e-06
 Reference value :  7.00223e-06
 Reference value :  7.00291e-06
 Reference value :  7.00363e-06
 Reference value :  7.00439e-06
 Reference value :  7.00523e-06
 Reference value :  7.00615e-06
 Reference value :  7.00717e-06
 Reference value :  7.00818e-06
 Reference value :  7.00904e-06
 Reference value :  7.01006e-06
 Reference value :  7.01108e-06
 Reference value :  7.01240e-06
 Reference value :  7.01436e-06
 Reference value :  7.01723e-06
 Reference value :  7.02046e-06
 Reference value :  7.02288e-06
 Reference value :  7.02508e-06
 Reference value :  7.02725e-06
 Reference value :  7.02925e-06
 Reference value :  7.03145e-06
 Reference value :  7.03381e-06
 Reference value :  7.03638e-06
 Reference value :  7.03932e-06
 Reference value :  7.04387e-06
 Reference value :  7.04990e-06
 Reference value :  7.05688e-06
 Reference value :  7.06671e-06
 Reference value :  7.07952e-06
 Reference value :  7.09487e-06
 Reference value :  7.11668e-06
 Reference value :  7.14152e-06
 Reference value :  7.18267e-06
 Reference value :  7.24741e-06
 Reference value :  7.25010e-06
 Reference value :  7.25011e-06
 Reference value :  7.25013e-06
 Reference value :  7.25017e-06
 Reference value :  7.25020e-06
 Reference value :  7.25020e-06
 Reference value :  7.25020e-06
 Reference value :  7.25021e-06
 Reference value :  7.25021e-06
 Reference value :  7.25022e-06
 Reference value :  7.25025e-06
 Reference value :  7.25030e-06
 Reference value :  7.25040e-06
 Reference value :  7.25059e-06
 Reference value :  7.25094e-06
 Reference value :  7.25154e-06
 Reference value :  7.25219e-06
 Reference value :  7.25294e-06
 Reference value :  7.25377e-06
 Reference value :  7.25483e-06
 Reference value :  7.25574e-06
 Reference value :  7.25680e-06
 Reference value :  7.25782e-06
 Reference value :  7.25887e-06
 Reference value :  7.26060e-06
 Reference value :  7.26226e-06
 Reference value :  7.26506e-06
 Reference value :  7.26838e-06
 Reference value :  7.27344e-06
 Reference value :  7.28357e-06
 Reference value :  7.30206e-06
 Reference value :  7.33628e-06
 Reference value :  7.40472e-06
 Reference value :  7.50000e-06
 Reference value :  7.50001e-06
 Reference value :  7.50003e-06
 Reference value :  7.50007e-06
 Reference value :  7.50010e-06
 Reference value :  7.50010e-06
 Reference value :  7.50011e-06
 Reference value :  7.50013e-06
 Reference value :  7.50016e-06
 Reference value :  7.50023e-06
 Reference value :  7.50037e-06
 Reference value :  7.50056e-06
 Reference value :  7.50093e-06
 Reference value :  7.50152e-06
 Reference value :  7.50214e-06
 Reference value :  7.50284e-06
 Reference value :  7.50356e-06
 Reference value :  7.50432e-06
 Reference value :  7.50517e-06
 Reference value :  7.50609e-06
 Reference value :  7.50714e-06
 Reference value :  7.50847e-06
 Reference value :  7.50985e-06
 Reference value :  7.51155e-06
 Reference value :  7.51308e-06
 Reference value :  7.51466e-06
 Reference value :  7.51609e-06
 Reference value :  7.51771e-06
 Reference value :  7.51931e-06
 Reference value :  7.52118e-06
 Reference value :  7.52491e-06
 Reference value :  7.53120e-06
 Reference value :  7.54378e-06
 Reference value :  7.56893e-06
 Reference value :  7.61925e-06
 Reference value :  7.71988e-06
 Reference value :  7.75010e-06
 Reference value :  7.75011e-06
 Reference value :  7.75013e-06
 Reference value :  7.75017e-06
 Reference value :  7.75020e-06
 Reference value :  7.75020e-06
 Reference value :  7.75020e-06
 Reference value :  7.75021e-06
 Reference value :  7.75021e-06
 Reference value :  7.75022e-06
 Reference value :  7.75025e-06
 Reference value :  7.75030e-06
 Reference value :  7.75039e-06
 Reference value :  7.75059e-06
 Reference value :  7.75093e-06
 Reference value :  7.75154e-06
 Reference value :  7.75217e-06
 Reference value :  7.75294e-06
 Reference value :  7.75375e-06
 Reference value :  7.75482e-06
 Reference value :  7.75571e-06
 Reference value :  7.75675e-06
 Reference value :  7.75766e-06
 Reference value :  7.75864e-06
 Reference value :  7.75976e-06
 Reference value :  7.76102e-06
 Reference value :  7.76353e-06
 Reference value :  7.76625e-06
 Reference value :  7.77068e-06
 Reference value :  7.77645e-06
 Reference value :  7.78798e-06
 Reference value :  7.81105e-06
 Reference value :  7.85719e-06
 Reference value :  7.94947e-06
 Reference value :  8.00000e-06
 Reference value :  8.00001e-06
 Reference value :  8.00003e-06
 Reference value :  8.00007e-06
 Reference value :  8.00010e-06
 Reference value :  8.00010e-06
 Reference value :  8.00011e-06
 Reference value :  8.00013e-06
 Reference value :  8.00016e-06
 Reference value :  8.00023e-06
 Reference value :  8.00037e-06
 Reference value :  8.00055e-06
 Reference value :  8.00092e-06
 Reference value :  8.00151e-06
 Reference value :  8.00214e-06
 Reference value :  8.00284e-06
 Reference value :  8.00356e-06
 Reference value :  8.00433e-06
 Reference value :  8.00517e-06
 Reference value :  8.00609e-06
 Reference value :  8.00702e-06
 Reference value :  8.00802e-06
 Reference value :  8.00897e-06
 Reference value :  8.00995e-06
 Reference value :  8.01097e-06
 Reference value :  8.01231e-06
 Reference value :  8.01413e-06
 Reference value :  8.01685e-06
 Reference value :  8.02022e-06
 Reference value :  8.02271e-06
 Reference value :  8.02546e-06
 Reference value :  8.02813e-06
 Reference value :  8.03121e-06
 Reference value :  8.03586e-06
 Reference value :  8.04193e-06
 Reference value :  8.05211e-06
 Reference value :  8.06822e-06
 Reference value :  8.09503e-06
 Reference value :  8.14684e-06
 Reference value :  8.24912e-06
 Reference value :  8.25010e-06
 Reference value :  8.25011e-06
 Reference value :  8.25013e-06
 Reference value :  8.25017e-06
 Reference value :  8.25020e-06
 Reference value :  8.25020e-06
 Reference value :  8.25020e-06
 Reference value :  8.25021e-06
 Reference value :  8.25021e-06
 Reference value :  8.25022e-06
 Reference value :  8.25025e-06
 Reference value :  8.25030e-06
 Reference value :  8.25039e-06
 Reference value :  8.25059e-06
 Reference value :  8.25097e-06
 Reference value :  8.25154e-06
 Reference value :  8.25221e-06
 Reference value :  8.25295e-06
 Reference value :  8.25379e-06
 Reference value :  8.25485e-06
 Reference value :  8.25616e-06
 Reference value :  8.25753e-06
 Reference value :  8.25911e-06
 Reference value :  8.26083e-06
 Reference value :  8.26340e-06
 Reference value :  8.26637e-06
 Reference value :  8.27042e-06
 Reference value :  8.27625e-06
 Reference value :  8.28791e-06
 Reference value :  8.31124e-06
 Reference value :  8.35745e-06
 Reference value :  8.44985e-06
 Reference value :  8.50000e-06
 Reference value :  8.50000e-06
 Reference value :  8.50000e-06
 Reference value :  8.50000e-06
 Reference value :  8.50000e-06
 Reference value :  8.50000e-06
 Reference value :  8.50000e-06
 Reference value :  8.50000e-06
 Reference value :  8.50000e-06
 Reference value :  8.50001e-06
 Reference value :  8.50001e-06
 Reference value :  8.50002e-06
 Reference value :  8.50004e-06
 Reference value :  8.50008e-06
 Reference value :  8.50010e-06
 Reference value :  8.50010e-06
 Reference value :  8.50011e-06
 Reference value :  8.50012e-06
 Reference value :  8.50014e-06
 Reference value :  8.50018e-06
 Reference value :  8.50027e-06
 Reference value :  8.50043e-06
 Reference value :  8.50077e-06
 Reference value :  8.50132e-06
 Reference value :  8.50220e-06
 Reference value :  8.50303e-06
 Reference value :  8.50371e-06
 Reference value :  8.50456e-06
 Reference value :  8.50538e-06
 Reference value :  8.50639e-06
 Reference value :  8.50750e-06
 Reference value :  8.50873e-06
 Reference value :  8.51058e-06
 Reference value :  8.51264e-06
 Reference value :  8.51428e-06
 Reference value :  8.51607e-06
 Reference value :  8.51842e-06
 Reference value :  8.52143e-06
 Reference value :  8.52436e-06
 Reference value :  8.53023e-06
 Reference value :  8.53708e-06
 Reference value :  8.54187e-06
 Reference value :  8.54585e-06
 Reference value :  8.54933e-06
 Reference value :  8.55246e-06
 Reference value :  8.55502e-06
 Reference value :  8.55748e-06
 Reference value :  8.55964e-06
 Reference value :  8.56200e-06
 Reference value :  8.56502e-06
 Reference value :  8.56815e-06
 Reference value :  8.57144e-06
 Reference value :  8.57696e-06
 Reference value :  8.58275e-06
 Reference value :  8.59432e-06
 Reference value :  8.60781e-06
 Reference value :  8.62273e-06
 Reference value :  8.63881e-06
 Reference value :  8.66004e-06
 Reference value :  8.68459e-06
 Reference value :  8.71657e-06
 Reference value :  8.75010e-06
 Reference value :  8.75011e-06
 Reference value :  8.75013e-06
 Reference value :  8.75017e-06
 Reference value :  8.75020e-06
 Reference value :  8.75020e-06
 Reference value :  8.75020e-06
 Reference value :  8.75021e-06
 Reference value :  8.75021e-06
 Reference value :  8.75022e-06
 Reference value :  8.75025e-06
 Reference value :  8.75030e-06
 Reference value :  8.75040e-06
 Reference value :  8.75059e-06
 Reference value :  8.75098e-06
 Reference value :  8.75155e-06
 Reference value :  8.75223e-06
 Reference value :  8.75299e-06
 Reference value :  8.75379e-06
 Reference value :  8.75491e-06
 Reference value :  8.75587e-06
 Reference value :  8.75693e-06
 Reference value :  8.75794e-06
 Reference value :  8.75899e-06
 Reference value :  8.76066e-06
 Reference value :  8.76238e-06
 Reference value :  8.76507e-06
 Reference value :  8.76855e-06
 Reference value :  8.77359e-06
 Reference value :  8.78365e-06
 Reference value :  8.80098e-06
 Reference value :  8.83202e-06
 Reference value :  8.89379e-06
 Reference value :  8.98033e-06
 Reference value :  9.00000e-06
 Reference value :  9.00001e-06
 Reference value :  9.00003e-06
 Reference value :  9.00007e-06
 Reference value :  9.00010e-06
 Reference value :  9.00010e-06
 Reference value :  9.00011e-06
 Reference value :  9.00013e-06
 Reference value :  9.00016e-06
 Reference value :  9.00023e-06
 Reference value :  9.00037e-06
 Reference value :  9.00056e-06
 Reference value :  9.00094e-06
 Reference value :  9.00153e-06
 Reference value :  9.00216e-06
 Reference value :  9.00286e-06
 Reference value :  9.00368e-06
 Reference value :  9.00443e-06
 Reference value :  9.00531e-06
 Reference value :  9.00625e-06
 Reference value :  9.00722e-06
 Reference value :  9.00866e-06
 Reference value :  9.01003e-06
 Reference value :  9.01255e-06
 Reference value :  9.01560e-06
 Reference value :  9.01778e-06
 Reference value :  9.02028e-06
 Reference value :  9.02275e-06
 Reference value :  9.02532e-06
 Reference value :  9.02847e-06
 Reference value :  9.03330e-06
 Reference value :  9.04000e-06
 Reference value :  9.04971e-06
 Reference value :  9.06911e-06
 Reference value :  9.09715e-06
 Reference value :  9.14881e-06
 Reference value :  9.24914e-06
 Reference value :  9.25010e-06
 Reference value :  9.25011e-06
 Reference value :  9.25013e-06
 Reference value :  9.25017e-06
 Reference value :  9.25020e-06
 Reference value :  9.25020e-06
 Reference value :  9.25020e-06
 Reference value :  9.25021e-06
 Reference value :  9.25021e-06
 Reference value :  9.25022e-06
 Reference value :  9.25025e-06
 Reference value :  9.25030e-06
 Reference value :  9.25040e-06
 Reference value :  9.25059e-06
 Reference value :  9.25098e-06
 Reference value :  9.25157e-06
 Reference value :  9.25224e-06
 Reference value :  9.25299e-06
 Reference value :  9.25383e-06
 Reference value :  9.25492e-06
 Reference value :  9.25581e-06
 Reference value :  9.25686e-06
 Reference value :  9.25777e-06
 Reference value :  9.25874e-06
 Reference value :  9.25991e-06
 Reference value :  9.26119e-06
 Reference value :  9.26376e-06
 Reference value :  9.26656e-06
 Reference value :  9.27108e-06
 Reference value :  9.27715e-06
 Reference value :  9.28927e-06
 Reference value :  9.31352e-06
 Reference value :  9.36203e-06
 Reference value :  9.45903e-06
 Reference value :  9.50000e-06
 Reference value :  9.50001e-06
 Reference value :  9.50003e-06
 Reference value :  9.50007e-06
 Reference value :  9.50010e-06
 Reference value :  9.50010e-06
 Reference value :  9.50011e-06
 Reference value :  9.50013e-06
 Reference value :  9.50016e-06
 Reference value :  9.50023e-06
 Reference value :  9.50037e-06
 Reference value :  9.50056e-06
 Reference value :  9.50094e-06
 Reference value :  9.50153e-06
 Reference value :  9.50216e-06
 Reference value :  9.50285e-06
 Reference value :  9.50357e-06
 Reference value :  9.50432e-06
 Reference value :  9.50516e-06
 Reference value :  9.50607e-06
 Reference value :  9.50702e-06
 Reference value :  9.50795e-06
 Reference value :  9.50904e-06
 Reference value :  9.51001e-06
 Reference value :  9.51108e-06
 Reference value :  9.51259e-06
 Reference value :  9.51428e-06
 Reference value :  9.51717e-06
 Reference value :  9.52013e-06
 Reference value :  9.52249e-06
 Reference value :  9.52463e-06
 Reference value :  9.52616e-06
 Reference value :  9.52772e-06
 Reference value :  9.52918e-06
 Reference value :  9.53076e-06
 Reference value :  9.53252e-06
 Reference value :  9.53500e-06
 Reference value :  9.53757e-06
 Reference value :  9.54220e-06
 Reference value :  9.54898e-06
 Reference value :  9.55938e-06
 Reference value :  9.57686e-06
 Reference value :  9.60467e-06
 Reference value :  9.64412e-06
 Reference value :  9.72302e-06
 Reference value :  9.75010e-06
 Reference value :  9.75011e-06
 Reference value :  9.75013e-06
 Reference value :  9.75017e-06
 Reference value :  9.75020e-06
 Reference value :  9.75020e-06
 Reference value :  9.75020e-06
 Reference value :  9.75021e-06
 Reference value :  9.75021e-06
 Reference value :  9.75022e-06
 Reference value :  9.75025e-06
 Reference value :  9.75030e-06
 Reference value :  9.75040e-06
 Reference value :  9.75059e-06
 Reference value :  9.75094e-06
 Reference value :  9.75156e-06
 Reference value :  9.75219e-06
 Reference value :  9.75296e-06
 Reference value :  9.75378e-06
 Reference value :  9.75486e-06
 Reference value :  9.75579e-06
 Reference value :  9.75687e-06
 Reference value :  9.75800e-06
 Reference value :  9.75906e-06
 Reference value :  9.76086e-06
 Reference value :  9.76259e-06
 Reference value :  9.76540e-06
 Reference value :  9.76895e-06
 Reference value :  9.77428e-06
 Reference value :  9.78493e-06
 Reference value :  9.80295e-06
 Reference value :  9.82622e-06
 Reference value :  9.84988e-06
 Reference value :  9.87190e-06
 Reference value :  9.88703e-06
 Reference value :  9.89989e-06
 Reference value :  9.91072e-06
 Reference value :  9.91904e-06
 Reference value :  9.92813e-06
 Reference value :  9.94179e-06
 Reference value :  9.95920e-06
 Reference value :  9.98666e-06
 Reference value :  1.00000e-05
 Reference value :  1.00000e-05
 Reference value :  1.00000e-05
 Reference value :  1.00001e-05
 Reference value :  1.00001e-05
 Reference value :  1.00001e-05
 Reference value :  1.00001e-05
 Reference value :  1.00001e-05
 Reference value :  1.00002e-05
 Reference value :  1.00002e-05
 Reference value :  1.00004e-05
 Reference value :  1.00006e-05
 Reference value :  1.00009e-05
 Reference value :  1.00016e-05
 Reference value :  1.00022e-05
 Reference value :  1.00029e-05
 Reference value :  1.00036e-05
 Reference value :  1.00043e-05
 Reference value :  1.00052e-05
 Reference value :  1.00061e-05
 Reference value :  1.00071e-05
 Reference value :  1.00085e-05
 Reference value :  1.00098e-05
 Reference value :  1.00114e-05
 Reference value :  1.00128e-05
 Reference value :  1.00143e-05
 Reference value :  1.00163e-05
 Reference value :  1.00182e-05
 Reference value :  1.00203e-05
 Reference value :  1.00233e-05
 Reference value :  1.00263e-05
 Reference value :  1.00318e-05
 Reference value :  1.00393e-05
 Reference value :  1.00517e-05
 Reference value :  1.00733e-05
 Reference value :  1.01080e-05
 Reference value :  1.01702e-05
 Reference value :  1.02501e-05
 Reference value :  1.02501e-05
 Reference value :  1.02501e-05
 Reference value :  1.02502e-05
 Reference value :  1.02502e-05
 Reference value :  1.02502e-05
 Reference value :  1.02502e-05
 Reference value :  1.02502e-05
 Reference value :  1.02502e-05
 Reference value :  1.02502e-05
 Reference value :  1.02502e-05
 Reference value :  1.02503e-05
 Reference value :  1.02504e-05
 Reference value :  1.02506e-05
 Reference value :  1.02509e-05
 Reference value :  1.02516e-05
 Reference value :  1.02522e-05
 Reference value :  1.02530e-05
 Reference value :  1.02538e-05
 Reference value :  1.02548e-05
 Reference value :  1.02558e-05
 Reference value :  1.02568e-05
 Reference value :  1.02578e-05
 Reference value :  1.02587e-05
 Reference value :  1.02599e-05
 Reference value :  1.02612e-05
 Reference value :  1.02625e-05
 Reference value :  1.02642e-05
 Reference value :  1.02665e-05
 Reference value :  1.02693e-05
 Reference value :  1.02730e-05
 Reference value :  1.02781e-05
 Reference value :  1.02885e-05
 Reference value :  1.03065e-05
 Reference value :  1.03425e-05
 Reference value :  1.04145e-05
 Reference value :  1.05000e-05
 Reference value :  1.05000e-05
 Reference value :  1.05000e-05
 Reference value :  1.05001e-05
 Reference value :  1.05001e-05
 Reference value :  1.05001e-05
 Reference value :  1.05001e-05
 Reference value :  1.05001e-05
 Reference value :  1.05002e-05
 Reference value :  1.05002e-05
 Reference value :  1.05004e-05
 Reference value :  1.05006e-05
 Reference value :  1.05009e-05
 Reference value :  1.05016e-05
 Reference value :  1.05022e-05
 Reference value :  1.05029e-05
 Reference value :  1.05036e-05
 Reference value :  1.05044e-05
 Reference value :  1.05052e-05
 Reference value :  1.05061e-05
 Reference value :  1.05070e-05
 Reference value :  1.05079e-05
 Reference value :  1.05087e-05
 Reference value :  1.05097e-05
 Reference value :  1.05106e-05
 Reference value :  1.05119e-05
 Reference value :  1.05131e-05
 Reference value :  1.05154e-05
 Reference value :  1.05179e-05
 Reference value :  1.05197e-05
 Reference value :  1.05218e-05
 Reference value :  1.05237e-05
 Reference value :  1.05252e-05
 Reference value :  1.05266e-05
 Reference value :  1.05281e-05
 Reference value :  1.05296e-05
 Reference value :  1.05316e-05
 Reference value :  1.05334e-05
 Reference value :  1.05363e-05
 Reference value :  1.05392e-05
 Reference value :  1.05452e-05
 Reference value :  1.05514e-05
 Reference value :  1.05578e-05
 Reference value :  1.05640e-05
 Reference value :  1.05682e-05
 Reference value :  1.05722e-05
 Reference value :  1.05749e-05
 Reference value :  1.05782e-05
 Reference value :  1.05839e-05
 Reference value :  1.05896e-05
 Reference value :  1.05996e-05
 Reference value :  1.06125e-05
 Reference value :  1.06319e-05
 Reference value :  1.06612e-05
 Reference value :  1.07035e-05
 Reference value :  1.07501e-05
 Reference value :  1.07501e-05
 Reference value :  1.07501e-05
 Reference value :  1.07502e-05
 Reference value :  1.07502e-05
 Reference value :  1.07502e-05
 Reference value :  1.07502e-05
 Reference value :  1.07502e-05
 Reference value :  1.07502e-05
 Reference value :  1.07502e-05
 Reference value :  1.07502e-05
 Reference value :  1.07503e-05
 Reference value :  1.07504e-05
 Reference value :  1.07506e-05
 Reference value :  1.07509e-05
 Reference value :  1.07515e-05
 Reference value :  1.07522e-05
 Reference value :  1.07529e-05
 Reference value :  1.07538e-05
 Reference value :  1.07548e-05
 Reference value :  1.07558e-05
 Reference value :  1.07569e-05
 Reference value :  1.07580e-05
 Reference value :  1.07590e-05
 Reference value :  1.07608e-05
 Reference value :  1.07626e-05
 Reference value :  1.07654e-05
 Reference value :  1.07689e-05
 Reference value :  1.07742e-05
 Reference value :  1.07848e-05
 Reference value :  1.08030e-05
 Reference value :  1.08360e-05
 Reference value :  1.09022e-05
 Reference value :  1.09666e-05
 Reference value :  1.10000e-05
 Reference value :  1.10000e-05
 Reference value :  1.10000e-05
 Reference value :  1.10001e-05
 Reference value :  1.10001e-05
 Reference value :  1.10001e-05
 Reference value :  1.10001e-05
 Reference value :  1.10001e-05
 Reference value :  1.10002e-05
 Reference value :  1.10002e-05
 Reference value :  1.10004e-05
 Reference value :  1.10006e-05
 Reference value :  1.10009e-05
 Reference value :  1.10016e-05
 Reference value :  1.10022e-05
 Reference value :  1.10029e-05
 Reference value :  1.10036e-05
 Reference value :  1.10044e-05
 Reference value :  1.10052e-05
 Reference value :  1.10062e-05
 Reference value :  1.10072e-05
 Reference value :  1.10085e-05
 Reference value :  1.10099e-05
 Reference value :  1.10115e-05
 Reference value :  1.10130e-05
 Reference value :  1.10146e-05
 Reference value :  1.10166e-05
 Reference value :  1.10183e-05
 Reference value :  1.10203e-05
 Reference value :  1.10224e-05
 Reference value :  1.10266e-05
 Reference value :  1.10348e-05
 Reference value :  1.10485e-05
 Reference value :  1.10758e-05
 Reference value :  1.11305e-05
 Reference value :  1.12398e-05
 Reference value :  1.12501e-05
 Reference value :  1.12501e-05
 Reference value :  1.12501e-05
 Reference value :  1.12502e-05
 Reference value :  1.12502e-05
 Reference value :  1.12502e-05
 Reference value :  1.12502e-05
 Reference value :  1.12502e-05
 Reference value :  1.12502e-05
 Reference value :  1.12502e-05
 Reference value :  1.12502e-05
 Reference value :  1.12503e-05
 Reference value :  1.12504e-05
 Reference value :  1.12506e-05
 Reference value :  1.12509e-05
 Reference value :  1.12515e-05
 Reference value :  1.12522e-05
 Reference value :  1.12529e-05
 Reference value :  1.12538e-05
 Reference value :  1.12548e-05
 Reference value :  1.12558e-05
 Reference value :  1.12568e-05
 Reference value :  1.12578e-05
 Reference value :  1.12588e-05
 Reference value :  1.12599e-05
 Reference value :  1.12612e-05
 Reference value :  1.12637e-05
 Reference value :  1.12665e-05
 Reference value :  1.12711e-05
 Reference value :  1.12772e-05
 Reference value :  1.12894e-05
 Reference value :  1.13138e-05
 Reference value :  1.13627e-05
 Reference value :  1.14604e-05
 Reference value :  1.15000e-05
 Reference value :  1.15000e-05
 Reference value :  1.15000e-05
 Reference value :  1.15001e-05
 Reference value :  1.15001e-05
 Reference value :  1.15001e-05
 Reference value :  1.15001e-05
 Reference value :  1.15001e-05
 Reference value :  1.15002e-05
 Reference value :  1.15002e-05
 Reference value :  1.15004e-05
 Reference value :  1.15006e-05
 Reference value :  1.15009e-05
 Reference value :  1.15016e-05
 Reference value :  1.15022e-05
 Reference value :  1.15029e-05
 Reference value :  1.15036e-05
 Reference value :  1.15044e-05
 Reference value :  1.15052e-05
 Reference value :  1.15061e-05
 Reference value :  1.15071e-05
 Reference value :  1.15081e-05
 Reference value :  1.15092e-05
 Reference value :  1.15102e-05
 Reference value :  1.15113e-05
 Reference value :  1.15127e-05
 Reference value :  1.15145e-05
 Reference value :  1.15175e-05
 Reference value :  1.15203e-05
 Reference value :  1.15227e-05
 Reference value :  1.15246e-05
 Reference value :  1.15264e-05
 Reference value :  1.15284e-05
 Reference value :  1.15303e-05
 Reference value :  1.15325e-05
 Reference value :  1.15349e-05
 Reference value :  1.15382e-05
 Reference value :  1.15422e-05
 Reference value :  1.15501e-05
 Reference value :  1.15623e-05
 Reference value :  1.15813e-05
 Reference value :  1.16129e-05
 Reference value :  1.16740e-05
 Reference value :  1.17326e-05
 Reference value :  1.17501e-05
 Reference value :  1.17501e-05
 Reference value :  1.17501e-05
 Reference value :  1.17502e-05
 Reference value :  1.17502e-05
 Reference value :  1.17502e-05
 Reference value :  1.17502e-05
 Reference value :  1.17502e-05
 Reference value :  1.17502e-05
 Reference value :  1.17502e-05
 Reference value :  1.17502e-05
 Reference value :  1.17503e-05
 Reference value :  1.17504e-05
 Reference value :  1.17506e-05
 Reference value :  1.17509e-05
 Reference value :  1.17515e-05
 Reference value :  1.17522e-05
 Reference value :  1.17529e-05
 Reference value :  1.17538e-05
 Reference value :  1.17548e-05
 Reference value :  1.17558e-05
 Reference value :  1.17569e-05
 Reference value :  1.17580e-05
 Reference value :  1.17590e-05
 Reference value :  1.17608e-05
 Reference value :  1.17626e-05
 Reference value :  1.17654e-05
 Reference value :  1.17689e-05
 Reference value :  1.17742e-05
 Reference value :  1.17848e-05
 Reference value :  1.18031e-05
 Reference value :  1.18365e-05
 Reference value :  1.19033e-05
 Reference value :  1.20000e-05
 Reference value :  1.20000e-05
 Reference value :  1.20000e-05
 Reference value :  1.20001e-05
 Reference value :  1.20001e-05
 Reference value :  1.20001e-05
 Reference value :  1.20001e-05
 Reference value :  1.20001e-05
 Reference value :  1.20002e-05
 Reference value :  1.20002e-05
 Reference value :  1.20004e-05
 Reference value :  1.20006e-05
 Reference value :  1.20009e-05
 Reference value :  1.20016e-05
 Reference value :  1.20022e-05
 Reference value :  1.20029e-05
 Reference value :  1.20036e-05
 Reference value :  1.20044e-05
 Reference value :  1.20052e-05
 Reference value :  1.20061e-05
 Reference value :  1.20071e-05
 Reference value :  1.20085e-05
 Reference value :  1.20098e-05
 Reference value :  1.20114e-05
 Reference value :  1.20129e-05
 Reference value :  1.20144e-05
 Reference value :  1.20160e-05
 Reference value :  1.20177e-05
 Reference value :  1.20194e-05
 Reference value :  1.20214e-05
 Reference value :  1.20252e-05
 Reference value :  1.20329e-05
 Reference value :  1.20458e-05
 Reference value :  1.20716e-05
 Reference value :  1.21234e-05
 Reference value :  1.22268e-05
 Reference value :  1.22501e-05
 Reference value :  1.22501e-05
 Reference value :  1.22501e-05
 Reference value :  1.22502e-05
 Reference value :  1.22502e-05
 Reference value :  1.22502e-05
 Reference value :  1.22502e-05
 Reference value :  1.22502e-05
 Reference value :  1.22502e-05
 Reference value :  1.22502e-05
 Reference value :  1.22502e-05
 Reference value :  1.22503e-05
 Reference value :  1.22504e-05
 Reference value :  1.22506e-05
 Reference value :  1.22509e-05
 Reference value :  1.22515e-05
 Reference value :  1.22522e-05
 Reference value :  1.22529e-05
 Reference value :  1.22538e-05
 Reference value :  1.22548e-05
 Reference value :  1.22557e-05
 Reference value :  1.22568e-05
 Reference value :  1.22577e-05
 Reference value :  1.22587e-05
 Reference value :  1.22599e-05
 Reference value :  1.22611e-05
 Reference value :  1.22637e-05
 Reference value :  1.22665e-05
 Reference value :  1.22710e-05
 Reference value :  1.22770e-05
 Reference value :  1.22890e-05
 Reference value :  1.23130e-05
 Reference value :  1.23609e-05
 Reference value :  1.24569e-05
 Reference value :  1.25000e-05
 Reference value :  1.25000e-05
 Reference value :  1.25000e-05
 Reference value :  1.25001e-05
 Reference value :  1.25001e-05
 Reference value :  1.25001e-05
 Reference value :  1.25001e-05
 Reference value :  1.25001e-05
 Reference value :  1.25002e-05
 Reference value :  1.25002e-05
 Reference value :  1.25004e-05
 Reference value :  1.25006e-05
 Reference value :  1.25009e-05
 Reference value :  1.25016e-05
 Reference value :  1.25022e-05
 Reference value :  1.25029e-05
 Reference value :  1.25036e-05
 Reference value :  1.25044e-05
 Reference value :  1.25052e-05
 Reference value :  1.25061e-05
 Reference value :  1.25072e-05
 Reference value :  1.25082e-05
 Reference value :  1.25091e-05
 Reference value :  1.25101e-05
 Reference value :  1.25112e-05
 Reference value :  1.25125e-05
 Reference value :  1.25144e-05
 Reference value :  1.25173e-05
 Reference value :  1.25202e-05
 Reference value :  1.25225e-05
 Reference value :  1.25245e-05
 Reference value :  1.25263e-05
 Reference value :  1.25283e-05
 Reference value :  1.25302e-05
 Reference value :  1.25323e-05
 Reference value :  1.25347e-05
 Reference value :  1.25380e-05
 Reference value :  1.25419e-05
 Reference value :  1.25494e-05
 Reference value :  1.25607e-05
 Reference value :  1.25729e-05
 Reference value :  1.25844e-05
 Reference value :  1.25976e-05
 Reference value :  1.26065e-05
 Reference value :  1.26149e-05
 Reference value :  1.26243e-05
 Reference value :  1.26315e-05
 Reference value :  1.26404e-05
 Reference value :  1.26558e-05
 Reference value :  1.26715e-05
 Reference value :  1.26892e-05
 Reference value :  1.27090e-05
 Reference value :  1.27189e-05
 Reference value :  1.27286e-05
 Reference value :  1.27394e-05
 Reference value :  1.27495e-05
 Reference value :  1.27501e-05
 Reference value :  1.27501e-05
 Reference value :  1.27501e-05
 Reference value :  1.27502e-05
 Reference value :  1.27502e-05
 Reference value :  1.27502e-05
 Reference value :  1.27502e-05
 Reference value :  1.27502e-05
 Reference value :  1.27502e-05
 Reference value :  1.27502e-05
 Reference value :  1.27502e-05
 Reference value :  1.27503e-05
 Reference value :  1.27504e-05
 Reference value :  1.27506e-05
 Reference value :  1.27509e-05
 Reference value :  1.27515e-05
 Reference value :  1.27522e-05
 Reference value :  1.27529e-05
 Reference value :  1.27537e-05
 Reference value :  1.27548e-05
 Reference value :  1.27558e-05
 Reference value :  1.27569e-05
 Reference value :  1.27580e-05
 Reference value :  1.27590e-05
 Reference value :  1.27608e-05
 Reference value :  1.27625e-05
 Reference value :  1.27654e-05
 Reference value :  1.27689e-05
 Reference value :  1.27741e-05
 Reference value :  1.27846e-05
 Reference value :  1.28031e-05
 Reference value :  1.28367e-05
 Reference value :  1.29039e-05
 Reference value :  1.30000e-05
 Reference value :  1.30000e-05
 Reference value :  1.30000e-05
 Reference value :  1.30001e-05
 Reference value :  1.30001e-05
 Reference value :  1.30001e-05
 Reference value :  1.30001e-05
 Reference value :  1.30001e-05
 Reference value :  1.30002e-05
 Reference value :  1.30002e-05
 Reference value :  1.30004e-05
 Reference value :  1.30006e-05
 Reference value :  1.30009e-05
 Reference value :  1.30016e-05
 Reference value :  1.30022e-05
 Reference value :  1.30029e-05
 Reference value :  1.30036e-05
 Reference value :  1.30044e-05
 Reference value :  1.30052e-05
 Reference value :  1.30061e-05
 Reference value :  1.30071e-05
 Reference value :  1.30085e-05
 Reference value :  1.30098e-05
 Reference value :  1.30113e-05
 Reference value :  1.30128e-05
 Reference value :  1.30144e-05
 Reference value :  1.30158e-05
 Reference value :  1.30174e-05
 Reference value :  1.30190e-05
 Reference value :  1.30209e-05
 Reference value :  1.30246e-05
 Reference value :  1.30306e-05
 Reference value :  1.30425e-05
 Reference value :  1.30663e-05
 Reference value :  1.31139e-05
 Reference value :  1.32091e-05
 Reference value :  1.32501e-05
 Reference value :  1.32501e-05
 Reference value :  1.32501e-05
 Reference value :  1.32502e-05
 Reference value :  1.32502e-05
 Reference value :  1.32502e-05
 Reference value :  1.32502e-05
 Reference value :  1.32502e-05
 Reference value :  1.32502e-05
 Reference value :  1.32502e-05
 Reference value :  1.32502e-05
 Reference value :  1.32503e-05
 Reference value :  1.32504e-05
 Reference value :  1.32506e-05
 Reference value :  1.32509e-05
 Reference value :  1.32515e-05
 Reference value :  1.32522e-05
 Reference value :  1.32529e-05
 Reference value :  1.32537e-05
 Reference value :  1.32548e-05
 Reference value :  1.32557e-05
 Reference value :  1.32568e-05
 Reference value :  1.32577e-05
 Reference value :  1.32587e-05
 Reference value :  1.32599e-05
 Reference value :  1.32611e-05
 Reference value :  1.32637e-05
 Reference value :  1.32664e-05
 Reference value :  1.32709e-05
 Reference value :  1.32769e-05
 Reference value :  1.32888e-05
 Reference value :  1.33127e-05
 Reference value :  1.33604e-05
 Reference value :  1.34558e-05
 Reference value :  1.35000e-05
 Reference value :  1.35000e-05
 Reference value :  1.35000e-05
 Reference value :  1.35001e-05
 Reference value :  1.35001e-05
 Reference value :  1.35001e-05
 Reference value :  1.35001e-05
 Reference value :  1.35001e-05
 Reference value :  1.35002e-05
 Reference value :  1.35002e-05
 Reference value :  1.35004e-05
 Reference value :  1.35006e-05
 Reference value :  1.35009e-05
 Reference value :  1.35016e-05
 Reference value :  1.35022e-05
 Reference value :  1.35029e-05
 Reference value :  1.35036e-05
 Reference value :  1.35044e-05
 Reference value :  1.35053e-05
 Reference value :  1.35062e-05
 Reference value :  1.35072e-05
 Reference value :  1.35082e-05
 Reference value :  1.35091e-05
 Reference value :  1.35101e-05
 Reference value :  1.35112e-05
 Reference value :  1.35125e-05
 Reference value :  1.35144e-05
 Reference value :  1.35173e-05
 Reference value :  1.35203e-05
 Reference value :  1.35227e-05
 Reference value :  1.35246e-05
 Reference value :  1.35264e-05
 Reference value :  1.35284e-05
 Reference value :  1.35303e-05
 Reference value :  1.35328e-05
 Reference value :  1.35350e-05
 Reference value :  1.35385e-05
 Reference value :  1.35429e-05
 Reference value :  1.35492e-05
 Reference value :  1.35572e-05
 Reference value :  1.35656e-05
 Reference value :  1.35717e-05
 Reference value :  1.35779e-05
 Reference value :  1.35845e-05
 Reference value :  1.35919e-05
 Reference value :  1.36000e-05
 Reference value :  1.36089e-05
 Reference value :  1.36169e-05
 Reference value :  1.36329e-05
 Reference value :  1.36513e-05
 Reference value :  1.36798e-05
 Reference value :  1.37236e-05
 Reference value :  1.37501e-05
 Reference value :  1.37501e-05
 Reference value :  1.37501e-05
 Reference value :  1.37502e-05
 Reference value :  1.37502e-05
 Reference value :  1.37502e-05
 Reference value :  1.37502e-05
 Reference value :  1.37502e-05
 Reference value :  1.37502e-05
 Reference value :  1.37502e-05
 Reference value :  1.37502e-05
 Reference value :  1.37503e-05
 Reference value :  1.37504e-05
 Reference value :  1.37506e-05
 Reference value :  1.37509e-05
 Reference value :  1.37515e-05
 Reference value :  1.37522e-05
 Reference value :  1.37529e-05
 Reference value :  1.37537e-05
 Reference value :  1.37548e-05
 Reference value :  1.37557e-05
 Reference value :  1.37567e-05
 Reference value :  1.37577e-05
 Reference value :  1.37588e-05
 Reference value :  1.37605e-05
 Reference value :  1.37621e-05
 Reference value :  1.37649e-05
 Reference value :  1.37681e-05
 Reference value :  1.37732e-05
 Reference value :  1.37827e-05
 Reference value :  1.38019e-05
 Reference value :  1.38399e-05
 Reference value :  1.39161e-05
 Reference value :  1.40000e-05
 Reference value :  1.40000e-05
 Reference value :  1.40000e-05
 Reference value :  1.40001e-05
 Reference value :  1.40001e-05
 Reference value :  1.40001e-05
 Reference value :  1.40001e-05
 Reference value :  1.40001e-05
 Reference value :  1.40002e-05
 Reference value :  1.40002e-05
 Reference value :  1.40004e-05
 Reference value :  1.40006e-05
 Reference value :  1.40009e-05
 Reference value :  1.40016e-05
 Reference value :  1.40022e-05
 Reference value :  1.40029e-05
 Reference value :  1.40036e-05
 Reference value :  1.40043e-05
 Reference value :  1.40052e-05
 Reference value :  1.40061e-05
 Reference value :  1.40071e-05
 Reference value :  1.40084e-05
 Reference value :  1.40098e-05
 Reference value :  1.40114e-05
 Reference value :  1.40129e-05
 Reference value :  1.40145e-05
 Reference value :  1.40159e-05
 Reference value :  1.40175e-05
 Reference value :  1.40192e-05
 Reference value :  1.40211e-05
 Reference value :  1.40249e-05
 Reference value :  1.40303e-05
 Reference value :  1.40412e-05
 Reference value :  1.40631e-05
 Reference value :  1.41050e-05
 Reference value :  1.41887e-05
 Reference value :  1.42501e-05
 Reference value :  1.42501e-05
 Reference value :  1.42501e-05
 Reference value :  1.42502e-05
 Reference value :  1.42502e-05
 Reference value :  1.42502e-05
 Reference value :  1.42502e-05
 Reference value :  1.42502e-05
 Reference value :  1.42502e-05
 Reference value :  1.42502e-05
 Reference value :  1.42502e-05
 Reference value :  1.42503e-05
 Reference value :  1.42504e-05
 Reference value :  1.42506e-05
 Reference value :  1.42509e-05
 Reference value :  1.42515e-05
 Reference value :  1.42522e-05
 Reference value :  1.42529e-05
 Reference value :  1.42537e-05
 Reference value :  1.42548e-05
 Reference value :  1.42557e-05
 Reference value :  1.42568e-05
 Reference value :  1.42578e-05
 Reference value :  1.42588e-05
 Reference value :  1.42599e-05
 Reference value :  1.42612e-05
 Reference value :  1.42625e-05
 Reference value :  1.42642e-05
 Reference value :  1.42665e-05
 Reference value :  1.42693e-05
 Reference value :  1.42730e-05
 Reference value :  1.42782e-05
 Reference value :  1.42887e-05
 Reference value :  1.43077e-05
 Reference value :  1.43457e-05
 Reference value :  1.44217e-05
 Reference value :  1.45000e-05
 Reference value :  1.45000e-05
 Reference value :  1.45000e-05
 Reference value :  1.45001e-05
 Reference value :  1.45001e-05
 Reference value :  1.45001e-05
 Reference value :  1.45001e-05
 Reference value :  1.45001e-05
 Reference value :  1.45002e-05
 Reference value :  1.45002e-05
 Reference value :  1.45004e-05
 Reference value :  1.45006e-05
 Reference value :  1.45009e-05
 Reference value :  1.45016e-05
 Reference value :  1.45022e-05
 Reference value :  1.45029e-05
 Reference value :  1.45036e-05
 Reference value :  1.45044e-05
 Reference value :  1.45052e-05
 Reference value :  1.45061e-05
 Reference value :  1.45071e-05
 Reference value :  1.45079e-05
 Reference value :  1.45088e-05
 Reference value :  1.45098e-05
 Reference value :  1.45108e-05
 Reference value :  1.45121e-05
 Reference value :  1.45139e-05
 Reference value :  1.45157e-05
 Reference value :  1.45175e-05
 Reference value :  1.45196e-05
 Reference value :  1.45214e-05
 Reference value :  1.45233e-05
 Reference value :  1.45247e-05
 Reference value :  1.45260e-05
 Reference value :  1.45274e-05
 Reference value :  1.45288e-05
 Reference value :  1.45302e-05
 Reference value :  1.45318e-05
 Reference value :  1.45330e-05
 Reference value :  1.45344e-05
 Reference value :  1.45360e-05
 Reference value :  1.45375e-05
 Reference value :  1.45395e-05
 Reference value :  1.45434e-05
 Reference value :  1.45501e-05
 Reference value :  1.45608e-05
 Reference value :  1.45715e-05
 Reference value :  1.45840e-05
 Reference value :  1.46022e-05
 Reference value :  1.46385e-05
 Reference value :  1.47039e-05
 Reference value :  1.47501e-05
 Reference value :  1.47501e-05
 Reference value :  1.47501e-05
 Reference value :  1.47502e-05
 Reference value :  1.47502e-05
 Reference value :  1.47502e-05
 Reference value :  1.47502e-05
 Reference value :  1.47502e-05
 Reference value :  1.47502e-05
 Reference value :  1.47502e-05
 Reference value :  1.47502e-05
 Reference value :  1.47503e-05
 Reference value :  1.47504e-05
 Reference value :  1.47506e-05
 Reference value :  1.47509e-05
 Reference value :  1.47515e-05
 Reference value :  1.47522e-05
 Reference value :  1.47529e-05
 Reference value :  1.47538e-05
 Reference value :  1.47548e-05
 Reference value :  1.47558e-05
 Reference value :  1.47569e-05
 Reference value :  1.47580e-05
 Reference value :  1.47590e-05
 Reference value :  1.47608e-05
 Reference value :  1.47626e-05
 Reference value :  1.47654e-05
 Reference value :  1.47689e-05
 Reference value :  1.47742e-05
 Reference value :  1.47848e-05
 Reference value :  1.48030e-05
 Reference value :  1.48362e-05
 Reference value :  1.49027e-05
 Reference value :  1.50000e-05
 Reference value :  1.50000e-05
 Reference value :  1.50000e-05
 Reference value :  1.50001e-05
 Reference value :  1.50001e-05
 Reference value :  1.50001e-05
 Reference value :  1.50001e-05
 Reference value :  1.50001e-05
 Reference value :  1.50002e-05
 Reference value :  1.50002e-05
 Reference value :  1.50004e-05
 Reference value :  1.50006e-05
 Reference value :  1.50009e-05
 Reference value :  1.50016e-05
 Reference value :  1.50022e-05
 Reference value :  1.50029e-05
 Reference value :  1.50036e-05
 Reference value :  1.50044e-05
 Reference value :  1.50052e-05
 Reference value :  1.50061e-05
 Reference value :  1.50071e-05
 Reference value :  1.50085e-05
 Reference value :  1.50098e-05
 Reference value :  1.50114e-05
 Reference value :  1.50129e-05
 Reference value :  1.50144e-05
 Reference value :  1.50159e-05
 Reference value :  1.50175e-05
 Reference value :  1.50191e-05
 Reference value :  1.50210e-05
 Reference value :  1.50248e-05
 Reference value :  1.50305e-05
 Reference value :  1.50418e-05
 Reference value :  1.50645e-05
 Reference value :  1.51098e-05
 Reference value :  1.52005e-05
 Reference value :  1.52501e-05
 Reference value :  1.52501e-05
 Reference value :  1.52501e-05
 Reference value :  1.52502e-05
 Reference value :  1.52502e-05
 Reference value :  1.52502e-05
 Reference value :  1.52502e-05
 Reference value :  1.52502e-05
 Reference value :  1.52502e-05
 Reference value :  1.52502e-05
 Reference value :  1.52502e-05
 Reference value :  1.52503e-05
 Reference value :  1.52504e-05
 Reference value :  1.52506e-05
 Reference value :  1.52509e-05
 Reference value :  1.52515e-05
 Reference value :  1.52522e-05
 Reference value :  1.52529e-05
 Reference value :  1.52537e-05
 Reference value :  1.52548e-05
 Reference value :  1.52557e-05
 Reference value :  1.52568e-05
 Reference value :  1.52578e-05
 Reference value :  1.52588e-05
 Reference value :  1.52599e-05
 Reference value :  1.52612e-05
 Reference value :  1.52637e-05
 Reference value :  1.52666e-05
 Reference value :  1.52711e-05
 Reference value :  1.52772e-05
 Reference value :  1.52895e-05
 Reference value :  1.53140e-05
 Reference value :  1.53630e-05
 Reference value :  1.54611e-05
 Reference value :  1.55000e-05
 Reference value :  1.55006e-05
 Reference value :  1.55017e-05
 Reference value :  1.55022e-05
 Reference value :  1.55028e-05
 Reference value :  1.55034e-05
 Reference value :  1.55042e-05
 Reference value :  1.55050e-05
 Reference value :  1.55060e-05
 Reference value :  1.55069e-05
 Reference value :  1.55078e-05
 Reference value :  1.55088e-05
 Reference value :  1.55099e-05
 Reference value :  1.55109e-05
 Reference value :  1.55124e-05
 Reference value :  1.55141e-05
 Reference value :  1.55172e-05
 Reference value :  1.55203e-05
 Reference value :  1.55227e-05
 Reference value :  1.55249e-05
 Reference value :  1.55269e-05
 Reference value :  1.55289e-05
 Reference value :  1.55310e-05
 Reference value :  1.55335e-05
 Reference value :  1.55358e-05
 Reference value :  1.55394e-05
 Reference value :  1.55440e-05
 Reference value :  1.55503e-05
 Reference value :  1.55569e-05
 Reference value :  1.55673e-05
 Reference value :  1.55852e-05
 Reference value :  1.56079e-05
 Reference value :  1.56317e-05
 Reference value :  1.56592e-05
 Reference value :  1.57143e-05
 Reference value :  1.57501e-05
 Reference value :  1.57501e-05
 Reference value :  1.57501e-05
 Reference value :  1.57502e-05
 Reference value :  1.57502e-05
 Reference value :  1.57502e-05
 Reference value :  1.57502e-05
 Reference value :  1.57502e-05
 Reference value :  1.57502e-05
 Reference value :  1.57502e-05
 Reference value :  1.57502e-05
 Reference value :  1.57503e-05
 Reference value :  1.57504e-05
 Reference value :  1.57506e-05
 Reference value :  1.57509e-05
 Reference value :  1.57515e-05
 Reference value :  1.57522e-05
 Reference value :  1.57529e-05
 Reference value :  1.57538e-05
 Reference value :  1.57548e-05
 Reference value :  1.57557e-05
 Reference value :  1.57568e-05
 Reference value :  1.57578e-05
[...]
 Reference value :  1.74211e-04
 Reference value :  1.74250e-04
 Reference value :  1.74250e-04
 Reference value :  1.74250e-04
 Reference value :  1.74250e-04
 Reference value :  1.74250e-04
 Reference value :  1.74250e-04
 Reference value :  1.74250e-04
 Reference value :  1.74250e-04
 Reference value :  1.74250e-04
 Reference value :  1.74250e-04
 Reference value :  1.74250e-04
 Reference value :  1.74250e-04
 Reference value :  1.74250e-04
 Reference value :  1.74251e-04
 Reference value :  1.74251e-04
 Reference value :  1.74252e-04
 Reference value :  1.74252e-04
 Reference value :  1.74253e-04
 Reference value :  1.74254e-04
 Reference value :  1.74255e-04
 Reference value :  1.74256e-04
 Reference value :  1.74257e-04
 Reference value :  1.74258e-04
 Reference value :  1.74259e-04
 Reference value :  1.74261e-04
 Reference value :  1.74263e-04
 Reference value :  1.74265e-04
 Reference value :  1.74269e-04
 Reference value :  1.74274e-04
 Reference value :  1.74285e-04
 Reference value :  1.74303e-04
 Reference value :  1.74336e-04
 Reference value :  1.74403e-04
 Reference value :  1.74500e-04
 Reference value :  1.74500e-04
 Reference value :  1.74500e-04
 Reference value :  1.74500e-04
 Reference value :  1.74500e-04
 Reference value :  1.74500e-04
 Reference value :  1.74500e-04
 Reference value :  1.74500e-04
 Reference value :  1.74500e-04
 Reference value :  1.74500e-04
 Reference value :  1.74500e-04
 Reference value :  1.74501e-04
 Reference value :  1.74501e-04
 Reference value :  1.74502e-04
 Reference value :  1.74502e-04
 Reference value :  1.74503e-04
 Reference value :  1.74504e-04
 Reference value :  1.74504e-04
 Reference value :  1.74505e-04
 Reference value :  1.74506e-04
 Reference value :  1.74507e-04
 Reference value :  1.74508e-04
 Reference value :  1.74510e-04
 Reference value :  1.74511e-04
 Reference value :  1.74513e-04
 Reference value :  1.74514e-04
 Reference value :  1.74516e-04
 Reference value :  1.74517e-04
 Reference value :  1.74519e-04
 Reference value :  1.74521e-04
 Reference value :  1.74525e-04
 Reference value :  1.74531e-04
 Reference value :  1.74542e-04
 Reference value :  1.74566e-04
 Reference value :  1.74614e-04
 Reference value :  1.74709e-04
 Reference value :  1.74750e-04
 Reference value :  1.74750e-04
 Reference value :  1.74750e-04
 Reference value :  1.74750e-04
 Reference value :  1.74750e-04
 Reference value :  1.74750e-04
 Reference value :  1.74750e-04
 Reference value :  1.74750e-04
 Reference value :  1.74750e-04
 Reference value :  1.74750e-04
 Reference value :  1.74750e-04
 Reference value :  1.74750e-04
 Reference value :  1.74750e-04
 Reference value :  1.74751e-04
 Reference value :  1.74751e-04
 Reference value :  1.74752e-04
 Reference value :  1.74752e-04
 Reference value :  1.74753e-04
 Reference value :  1.74754e-04
 Reference value :  1.74755e-04
 Reference value :  1.74756e-04
 Reference value :  1.74757e-04
 Reference value :  1.74758e-04
 Reference value :  1.74759e-04
 Reference value :  1.74760e-04
 Reference value :  1.74761e-04
 Reference value :  1.74764e-04
 Reference value :  1.74766e-04
 Reference value :  1.74771e-04
 Reference value :  1.74777e-04
 Reference value :  1.74789e-04
 Reference value :  1.74813e-04
 Reference value :  1.74861e-04
 Reference value :  1.74956e-04
 Reference value :  1.75000e-04
 Reference value :  1.75000e-04
 Reference value :  1.75000e-04
 Reference value :  1.75000e-04
 Reference value :  1.75000e-04
 Reference value :  1.75000e-04
 Reference value :  1.75000e-04
 Reference value :  1.75000e-04
 Reference value :  1.75000e-04
 Reference value :  1.75000e-04
 Reference value :  1.75000e-04
 Reference value :  1.75001e-04
 Reference value :  1.75001e-04
 Reference value :  1.75002e-04
 Reference value :  1.75002e-04
 Reference value :  1.75003e-04
 Reference value :  1.75004e-04
 Reference value :  1.75004e-04
 Reference value :  1.75005e-04
 Reference value :  1.75006e-04
 Reference value :  1.75007e-04
 Reference value :  1.75008e-04
 Reference value :  1.75009e-04
 Reference value :  1.75010e-04
 Reference value :  1.75011e-04
 Reference value :  1.75012e-04
 Reference value :  1.75014e-04
 Reference value :  1.75017e-04
 Reference value :  1.75020e-04
 Reference value :  1.75023e-04
 Reference value :  1.75025e-04
 Reference value :  1.75026e-04
 Reference value :  1.75028e-04
 Reference value :  1.75030e-04
 Reference value :  1.75033e-04
 Reference value :  1.75035e-04
 Reference value :  1.75038e-04
 Reference value :  1.75043e-04
 Reference value :  1.75050e-04
 Reference value :  1.75062e-04
 Reference value :  1.75082e-04
 Reference value :  1.75100e-04
 Reference value :  1.75121e-04
 Reference value :  1.75146e-04
 Reference value :  1.75176e-04
 Reference value :  1.75213e-04
 Reference value :  1.75250e-04
 Reference value :  1.75250e-04
 Reference value :  1.75250e-04
 Reference value :  1.75250e-04
 Reference value :  1.75250e-04
 Reference value :  1.75250e-04
 Reference value :  1.75250e-04
 Reference value :  1.75250e-04
 Reference value :  1.75250e-04
 Reference value :  1.75250e-04
 Reference value :  1.75250e-04
 Reference value :  1.75250e-04
 Reference value :  1.75250e-04
 Reference value :  1.75251e-04
 Reference value :  1.75251e-04
 Reference value :  1.75252e-04
 Reference value :  1.75252e-04
 Reference value :  1.75253e-04
 Reference value :  1.75254e-04
 Reference value :  1.75255e-04
 Reference value :  1.75256e-04
 Reference value :  1.75257e-04
 Reference value :  1.75258e-04
 Reference value :  1.75259e-04
 Reference value :  1.75261e-04
 Reference value :  1.75263e-04
 Reference value :  1.75265e-04
 Reference value :  1.75269e-04
 Reference value :  1.75274e-04
 Reference value :  1.75285e-04
 Reference value :  1.75303e-04
 Reference value :  1.75337e-04
 Reference value :  1.75404e-04
 Reference value :  1.75500e-04
 Reference value :  1.75500e-04
 Reference value :  1.75500e-04
 Reference value :  1.75500e-04
 Reference value :  1.75500e-04
 Reference value :  1.75500e-04
 Reference value :  1.75500e-04
 Reference value :  1.75500e-04
 Reference value :  1.75500e-04
 Reference value :  1.75500e-04
 Reference value :  1.75500e-04
 Reference value :  1.75501e-04
 Reference value :  1.75501e-04
 Reference value :  1.75502e-04
 Reference value :  1.75502e-04
 Reference value :  1.75503e-04
 Reference value :  1.75504e-04
 Reference value :  1.75504e-04
 Reference value :  1.75505e-04
 Reference value :  1.75506e-04
 Reference value :  1.75507e-04
 Reference value :  1.75509e-04
 Reference value :  1.75510e-04
 Reference value :  1.75511e-04
 Reference value :  1.75513e-04
 Reference value :  1.75515e-04
 Reference value :  1.75516e-04
 Reference value :  1.75518e-04
 Reference value :  1.75520e-04
 Reference value :  1.75522e-04
 Reference value :  1.75525e-04
 Reference value :  1.75531e-04
 Reference value :  1.75541e-04
 Reference value :  1.75560e-04
 Reference value :  1.75597e-04
 Reference value :  1.75671e-04
 Reference value :  1.75750e-04
 Reference value :  1.75750e-04
 Reference value :  1.75750e-04
 Reference value :  1.75750e-04
 Reference value :  1.75750e-04
 Reference value :  1.75750e-04
 Reference value :  1.75750e-04
 Reference value :  1.75750e-04
 Reference value :  1.75750e-04
 Reference value :  1.75750e-04
 Reference value :  1.75750e-04
 Reference value :  1.75750e-04
 Reference value :  1.75750e-04
 Reference value :  1.75751e-04
 Reference value :  1.75751e-04
 Reference value :  1.75752e-04
 Reference value :  1.75752e-04
 Reference value :  1.75753e-04
 Reference value :  1.75754e-04
 Reference value :  1.75755e-04
 Reference value :  1.75756e-04
 Reference value :  1.75757e-04
 Reference value :  1.75758e-04
 Reference value :  1.75759e-04
 Reference value :  1.75760e-04
 Reference value :  1.75761e-04
 Reference value :  1.75764e-04
 Reference value :  1.75767e-04
 Reference value :  1.75771e-04
 Reference value :  1.75777e-04
 Reference value :  1.75789e-04
 Reference value :  1.75814e-04
 Reference value :  1.75862e-04
 Reference value :  1.75959e-04
 Reference value :  1.76000e-04
 Reference value :  1.76000e-04
 Reference value :  1.76000e-04
 Reference value :  1.76000e-04
 Reference value :  1.76000e-04
 Reference value :  1.76000e-04
 Reference value :  1.76000e-04
 Reference value :  1.76000e-04
 Reference value :  1.76000e-04
 Reference value :  1.76000e-04
 Reference value :  1.76000e-04
 Reference value :  1.76001e-04
 Reference value :  1.76001e-04
 Reference value :  1.76002e-04
 Reference value :  1.76002e-04
 Reference value :  1.76003e-04
 Reference value :  1.76004e-04
 Reference value :  1.76004e-04
 Reference value :  1.76005e-04
 Reference value :  1.76006e-04
 Reference value :  1.76007e-04
 Reference value :  1.76008e-04
 Reference value :  1.76009e-04
 Reference value :  1.76010e-04
 Reference value :  1.76011e-04
 Reference value :  1.76012e-04
 Reference value :  1.76014e-04
 Reference value :  1.76017e-04
 Reference value :  1.76020e-04
 Reference value :  1.76023e-04
 Reference value :  1.76025e-04
 Reference value :  1.76027e-04
 Reference value :  1.76029e-04
 Reference value :  1.76031e-04
 Reference value :  1.76033e-04
 Reference value :  1.76035e-04
 Reference value :  1.76039e-04
 Reference value :  1.76043e-04
 Reference value :  1.76052e-04
 Reference value :  1.76062e-04
 Reference value :  1.76073e-04
 Reference value :  1.76085e-04
 Reference value :  1.76103e-04
 Reference value :  1.76124e-04
 Reference value :  1.76154e-04
 Reference value :  1.76204e-04
 Reference value :  1.76250e-04
 Reference value :  1.76250e-04
 Reference value :  1.76250e-04
 Reference value :  1.76250e-04
 Reference value :  1.76250e-04
 Reference value :  1.76250e-04
 Reference value :  1.76250e-04
 Reference value :  1.76250e-04
 Reference value :  1.76250e-04
 Reference value :  1.76250e-04
 Reference value :  1.76250e-04
 Reference value :  1.76250e-04
 Reference value :  1.76250e-04
 Reference value :  1.76251e-04
 Reference value :  1.76251e-04
 Reference value :  1.76252e-04
 Reference value :  1.76252e-04
 Reference value :  1.76253e-04
 Reference value :  1.76254e-04
 Reference value :  1.76255e-04
 Reference value :  1.76256e-04
 Reference value :  1.76257e-04
 Reference value :  1.76258e-04
 Reference value :  1.76259e-04
 Reference value :  1.76261e-04
 Reference value :  1.76263e-04
 Reference value :  1.76265e-04
 Reference value :  1.76269e-04
 Reference value :  1.76274e-04
 Reference value :  1.76285e-04
 Reference value :  1.76303e-04
 Reference value :  1.76337e-04
 Reference value :  1.76404e-04
 Reference value :  1.76500e-04
 Reference value :  1.76500e-04
 Reference value :  1.76500e-04
 Reference value :  1.76500e-04
 Reference value :  1.76500e-04
 Reference value :  1.76500e-04
 Reference value :  1.76500e-04
 Reference value :  1.76500e-04
 Reference value :  1.76500e-04
 Reference value :  1.76500e-04
 Reference value :  1.76500e-04
 Reference value :  1.76501e-04
 Reference value :  1.76501e-04
 Reference value :  1.76502e-04
 Reference value :  1.76502e-04
 Reference value :  1.76503e-04
 Reference value :  1.76504e-04
 Reference value :  1.76504e-04
 Reference value :  1.76505e-04
 Reference value :  1.76506e-04
 Reference value :  1.76507e-04
 Reference value :  1.76508e-04
 Reference value :  1.76510e-04
 Reference value :  1.76511e-04
 Reference value :  1.76513e-04
 Reference value :  1.76514e-04
 Reference value :  1.76516e-04
 Reference value :  1.76517e-04
 Reference value :  1.76519e-04
 Reference value :  1.76521e-04
 Reference value :  1.76525e-04
 Reference value :  1.76530e-04
 Reference value :  1.76542e-04
 Reference value :  1.76564e-04
 Reference value :  1.76610e-04
 Reference value :  1.76700e-04
 Reference value :  1.76750e-04
 Reference value :  1.76750e-04
 Reference value :  1.76750e-04
 Reference value :  1.76750e-04
 Reference value :  1.76750e-04
 Reference value :  1.76750e-04
 Reference value :  1.76750e-04
 Reference value :  1.76750e-04
 Reference value :  1.76750e-04
 Reference value :  1.76750e-04
 Reference value :  1.76750e-04
 Reference value :  1.76750e-04
 Reference value :  1.76750e-04
 Reference value :  1.76751e-04
 Reference value :  1.76751e-04
 Reference value :  1.76752e-04
 Reference value :  1.76752e-04
 Reference value :  1.76753e-04
 Reference value :  1.76754e-04
 Reference value :  1.76755e-04
 Reference value :  1.76756e-04
 Reference value :  1.76757e-04
 Reference value :  1.76758e-04
 Reference value :  1.76759e-04
 Reference value :  1.76760e-04
 Reference value :  1.76761e-04
 Reference value :  1.76764e-04
 Reference value :  1.76767e-04
 Reference value :  1.76771e-04
 Reference value :  1.76777e-04
 Reference value :  1.76789e-04
 Reference value :  1.76814e-04
 Reference value :  1.76862e-04
 Reference value :  1.76959e-04
 Reference value :  1.77000e-04
 Reference value :  1.77000e-04
 Reference value :  1.77000e-04
 Reference value :  1.77000e-04
 Reference value :  1.77000e-04
 Reference value :  1.77000e-04
 Reference value :  1.77000e-04
 Reference value :  1.77000e-04
 Reference value :  1.77000e-04
 Reference value :  1.77000e-04
 Reference value :  1.77000e-04
 Reference value :  1.77001e-04
 Reference value :  1.77001e-04
 Reference value :  1.77002e-04
 Reference value :  1.77002e-04
 Reference value :  1.77003e-04
 Reference value :  1.77004e-04
 Reference value :  1.77004e-04
 Reference value :  1.77005e-04
 Reference value :  1.77006e-04
 Reference value :  1.77007e-04
 Reference value :  1.77008e-04
 Reference value :  1.77009e-04
 Reference value :  1.77010e-04
 Reference value :  1.77011e-04
 Reference value :  1.77012e-04
 Reference value :  1.77014e-04
 Reference value :  1.77017e-04
 Reference value :  1.77020e-04
 Reference value :  1.77023e-04
 Reference value :  1.77025e-04
 Reference value :  1.77027e-04
 Reference value :  1.77029e-04
 Reference value :  1.77032e-04
 Reference value :  1.77034e-04
 Reference value :  1.77036e-04
 Reference value :  1.77039e-04
 Reference value :  1.77044e-04
 Reference value :  1.77050e-04
 Reference value :  1.77057e-04
 Reference value :  1.77066e-04
 Reference value :  1.77083e-04
 Reference value :  1.77109e-04
 Reference value :  1.77155e-04
 Reference value :  1.77236e-04
 Reference value :  1.77250e-04
 Reference value :  1.77250e-04
 Reference value :  1.77250e-04
 Reference value :  1.77250e-04
 Reference value :  1.77250e-04
 Reference value :  1.77250e-04
 Reference value :  1.77250e-04
 Reference value :  1.77250e-04
 Reference value :  1.77250e-04
 Reference value :  1.77250e-04
 Reference value :  1.77250e-04
 Reference value :  1.77250e-04
 Reference value :  1.77250e-04
 Reference value :  1.77251e-04
 Reference value :  1.77251e-04
 Reference value :  1.77252e-04
 Reference value :  1.77252e-04
 Reference value :  1.77253e-04
 Reference value :  1.77254e-04
 Reference value :  1.77255e-04
 Reference value :  1.77256e-04
 Reference value :  1.77257e-04
 Reference value :  1.77258e-04
 Reference value :  1.77259e-04
 Reference value :  1.77261e-04
 Reference value :  1.77262e-04
 Reference value :  1.77265e-04
 Reference value :  1.77269e-04
 Reference value :  1.77274e-04
 Reference value :  1.77284e-04
 Reference value :  1.77303e-04
 Reference value :  1.77337e-04
 Reference value :  1.77404e-04
 Reference value :  1.77500e-04
 Reference value :  1.77500e-04
 Reference value :  1.77500e-04
 Reference value :  1.77500e-04
 Reference value :  1.77500e-04
 Reference value :  1.77500e-04
 Reference value :  1.77500e-04
 Reference value :  1.77500e-04
 Reference value :  1.77500e-04
 Reference value :  1.77500e-04
 Reference value :  1.77500e-04
 Reference value :  1.77501e-04
 Reference value :  1.77501e-04
 Reference value :  1.77502e-04
 Reference value :  1.77502e-04
 Reference value :  1.77503e-04
 Reference value :  1.77504e-04
 Reference value :  1.77504e-04
 Reference value :  1.77505e-04
 Reference value :  1.77506e-04
 Reference value :  1.77507e-04
 Reference value :  1.77508e-04
 Reference value :  1.77510e-04
 Reference value :  1.77512e-04
 Reference value :  1.77513e-04
 Reference value :  1.77515e-04
 Reference value :  1.77516e-04
 Reference value :  1.77518e-04
 Reference value :  1.77519e-04
 Reference value :  1.77521e-04
 Reference value :  1.77525e-04
 Reference value :  1.77531e-04
 Reference value :  1.77544e-04
 Reference value :  1.77569e-04
 Reference value :  1.77619e-04
 Reference value :  1.77720e-04
 Reference value :  1.77750e-04
 Reference value :  1.77750e-04
 Reference value :  1.77750e-04
 Reference value :  1.77750e-04
 Reference value :  1.77750e-04
 Reference value :  1.77750e-04
 Reference value :  1.77750e-04
 Reference value :  1.77750e-04
 Reference value :  1.77750e-04
 Reference value :  1.77750e-04
 Reference value :  1.77750e-04
 Reference value :  1.77750e-04
 Reference value :  1.77750e-04
 Reference value :  1.77751e-04
 Reference value :  1.77751e-04
 Reference value :  1.77752e-04
 Reference value :  1.77752e-04
 Reference value :  1.77753e-04
 Reference value :  1.77754e-04
 Reference value :  1.77755e-04
 Reference value :  1.77756e-04
 Reference value :  1.77757e-04
 Reference value :  1.77758e-04
 Reference value :  1.77759e-04
 Reference value :  1.77760e-04
 Reference value :  1.77761e-04
 Reference value :  1.77764e-04
 Reference value :  1.77766e-04
 Reference value :  1.77771e-04
 Reference value :  1.77776e-04
 Reference value :  1.77788e-04
 Reference value :  1.77811e-04
 Reference value :  1.77857e-04
 Reference value :  1.77950e-04
 Reference value :  1.78000e-04
 Reference value :  1.78000e-04
 Reference value :  1.78000e-04
 Reference value :  1.78000e-04
 Reference value :  1.78000e-04
 Reference value :  1.78000e-04
 Reference value :  1.78000e-04
 Reference value :  1.78000e-04
 Reference value :  1.78000e-04
 Reference value :  1.78000e-04
 Reference value :  1.78000e-04
 Reference value :  1.78001e-04
 Reference value :  1.78001e-04
 Reference value :  1.78002e-04
 Reference value :  1.78002e-04
 Reference value :  1.78003e-04
 Reference value :  1.78004e-04
 Reference value :  1.78004e-04
 Reference value :  1.78005e-04
 Reference value :  1.78006e-04
 Reference value :  1.78007e-04
 Reference value :  1.78008e-04
 Reference value :  1.78009e-04
 Reference value :  1.78010e-04
 Reference value :  1.78011e-04
 Reference value :  1.78012e-04
 Reference value :  1.78014e-04
 Reference value :  1.78017e-04
 Reference value :  1.78020e-04
 Reference value :  1.78023e-04
 Reference value :  1.78025e-04
 Reference value :  1.78028e-04
 Reference value :  1.78031e-04
 Reference value :  1.78036e-04
 Reference value :  1.78042e-04
 Reference value :  1.78052e-04
 Reference value :  1.78068e-04
 Reference value :  1.78095e-04
 Reference value :  1.78147e-04
 Reference value :  1.78249e-04
 Reference value :  1.78250e-04
 Reference value :  1.78250e-04
 Reference value :  1.78250e-04
 Reference value :  1.78250e-04
 Reference value :  1.78250e-04
 Reference value :  1.78250e-04
 Reference value :  1.78250e-04
 Reference value :  1.78250e-04
 Reference value :  1.78250e-04
 Reference value :  1.78250e-04
 Reference value :  1.78250e-04
 Reference value :  1.78250e-04
 Reference value :  1.78250e-04
 Reference value :  1.78251e-04
 Reference value :  1.78251e-04
 Reference value :  1.78252e-04
 Reference value :  1.78252e-04
 Reference value :  1.78253e-04
 Reference value :  1.78254e-04
 Reference value :  1.78255e-04
 Reference value :  1.78256e-04
 Reference value :  1.78258e-04
 Reference value :  1.78259e-04
 Reference value :  1.78261e-04
 Reference value :  1.78263e-04
 Reference value :  1.78266e-04
 Reference value :  1.78270e-04
 Reference value :  1.78276e-04
 Reference value :  1.78288e-04
 Reference value :  1.78311e-04
 Reference value :  1.78357e-04
 Reference value :  1.78450e-04
 Reference value :  1.78500e-04
No. of Data Rows : 27352
ngspice-44 done
