
Note: Compatibility modes selected: hs a


Circuit: ** sch_path: /home/madra/cace/sar-adc-using-sky130-pdk/runs/run_2025-09-01_19-19-58/parameters/inl/run_3/sar_output.sch

option SCALE: Scale is set to 1e-06 for instance and model parameters
option SCALE: Scale is set to 1e-06 for instance and model parameters
option SCALE: Scale is set to 1e-06 for instance and model parameters
option SCALE: Scale is set to 1e-06 for instance and model parameters
Doing analysis at TEMP = 27.000000 and TNOM = 27.000000

Using KLU as Direct Linear Solver
Operating point simulation skipped by 'uic',
  now using transient initial conditions.
 Reference value :  1.00000e-12
 Reference value :  1.02800e-12
 Reference value :  1.19600e-12
 Reference value :  2.22625e-12
 Reference value :  9.20646e-12
 Reference value :  5.66846e-11
 Reference value :  1.04933e-10
 Reference value :  1.34529e-10
 Reference value :  4.10761e-10
 Reference value :  9.54233e-10
 Reference value :  1.89083e-09
 Reference value :  4.11644e-09
 Reference value :  6.08136e-09
 Reference value :  6.80587e-09
 Reference value :  8.24061e-09
 Reference value :  1.08862e-08
 Reference value :  1.24055e-08
 Reference value :  1.56573e-08
 Reference value :  2.18128e-08
 Reference value :  2.58862e-08
 Reference value :  3.40391e-08
 Reference value :  4.89662e-08
 Reference value :  9.57270e-08
 Reference value :  2.50110e-07
 Reference value :  2.50200e-07
 Reference value :  2.50253e-07
 Reference value :  2.50407e-07
 Reference value :  2.50731e-07
 Reference value :  2.51911e-07
 Reference value :  2.53039e-07
 Reference value :  2.53667e-07
 Reference value :  2.54811e-07
 Reference value :  2.56166e-07
 Reference value :  2.59856e-07
 Reference value :  2.84632e-07
 Reference value :  4.22656e-07
 Reference value :  5.00030e-07
 Reference value :  5.00108e-07
 Reference value :  5.00220e-07
 Reference value :  5.00518e-07
 Reference value :  5.01310e-07
 Reference value :  5.02312e-07
 Reference value :  5.03342e-07
 Reference value :  5.05511e-07
 Reference value :  5.07731e-07
 Reference value :  5.11177e-07
 Reference value :  5.13779e-07
 Reference value :  5.17459e-07
 Reference value :  5.23145e-07
 Reference value :  5.35377e-07
 Reference value :  6.21616e-07
 Reference value :  7.50110e-07
 Reference value :  7.50170e-07
 Reference value :  7.50208e-07
 Reference value :  7.50255e-07
 Reference value :  7.50597e-07
 Reference value :  7.51257e-07
 Reference value :  7.52139e-07
 Reference value :  7.53493e-07
 Reference value :  7.54007e-07
 Reference value :  7.55255e-07
 Reference value :  7.57880e-07
 Reference value :  7.67050e-07
 Reference value :  8.13880e-07
 Reference value :  1.00000e-06
 Reference value :  1.00003e-06
 Reference value :  1.00010e-06
 Reference value :  1.00022e-06
 Reference value :  1.00086e-06
 Reference value :  1.00182e-06
 Reference value :  1.00278e-06
 Reference value :  1.00333e-06
 Reference value :  1.00449e-06
 Reference value :  1.00586e-06
 Reference value :  1.00855e-06
 Reference value :  1.01010e-06
 Reference value :  1.01280e-06
 Reference value :  1.01379e-06
 Reference value :  1.01587e-06
 Reference value :  1.01802e-06
 Reference value :  1.02277e-06
 Reference value :  1.05293e-06
 Reference value :  1.12280e-06
 Reference value :  1.16025e-06
 Reference value :  1.18619e-06
 Reference value :  1.19775e-06
 Reference value :  1.20743e-06
 Reference value :  1.22173e-06
 Reference value :  1.25010e-06
 Reference value :  1.25013e-06
 Reference value :  1.25020e-06
 Reference value :  1.25026e-06
 Reference value :  1.25060e-06
 Reference value :  1.25126e-06
 Reference value :  1.25214e-06
 Reference value :  1.25344e-06
 Reference value :  1.25450e-06
 Reference value :  1.25582e-06
 Reference value :  1.26268e-06
 Reference value :  1.32045e-06
 Reference value :  1.50003e-06
 Reference value :  1.50012e-06
 Reference value :  1.50034e-06
 Reference value :  1.50086e-06
 Reference value :  1.50175e-06
 Reference value :  1.50268e-06
 Reference value :  1.50322e-06
 Reference value :  1.50442e-06
 Reference value :  1.50522e-06
 Reference value :  1.50671e-06
 Reference value :  1.50832e-06
 Reference value :  1.51031e-06
 Reference value :  1.51386e-06
 Reference value :  1.54269e-06
 Reference value :  1.75010e-06
 Reference value :  1.75013e-06
 Reference value :  1.75020e-06
 Reference value :  1.75026e-06
 Reference value :  1.75044e-06
 Reference value :  1.75083e-06
 Reference value :  1.75170e-06
 Reference value :  1.75350e-06
 Reference value :  1.75460e-06
 Reference value :  1.75598e-06
 Reference value :  1.75765e-06
 Reference value :  1.76167e-06
 Reference value :  1.77226e-06
 Reference value :  1.81664e-06
 Reference value :  2.00000e-06
 Reference value :  2.00007e-06
 Reference value :  2.00012e-06
 Reference value :  2.00034e-06
 Reference value :  2.00131e-06
 Reference value :  2.00231e-06
 Reference value :  2.00334e-06
 Reference value :  2.00457e-06
 Reference value :  2.00582e-06
 Reference value :  2.00834e-06
 Reference value :  2.01047e-06
 Reference value :  2.01266e-06
 Reference value :  2.01434e-06
 Reference value :  2.01628e-06
 Reference value :  2.01840e-06
 Reference value :  2.02143e-06
 Reference value :  2.03312e-06
 Reference value :  2.05263e-06
 Reference value :  2.06323e-06
 Reference value :  2.07238e-06
 Reference value :  2.07891e-06
 Reference value :  2.09208e-06
 Reference value :  2.10449e-06
 Reference value :  2.14061e-06
 Reference value :  2.18568e-06
 Reference value :  2.25011e-06
 Reference value :  2.25017e-06
 Reference value :  2.25022e-06
 Reference value :  2.25032e-06
 Reference value :  2.25060e-06
 Reference value :  2.25127e-06
 Reference value :  2.25216e-06
 Reference value :  2.25352e-06
 Reference value :  2.25404e-06
 Reference value :  2.25527e-06
 Reference value :  2.25678e-06
 Reference value :  2.26318e-06
 Reference value :  2.29468e-06
 Reference value :  2.50000e-06
 Reference value :  2.50003e-06
 Reference value :  2.50010e-06
 Reference value :  2.50012e-06
 Reference value :  2.50022e-06
 Reference value :  2.50052e-06
 Reference value :  2.50131e-06
 Reference value :  2.50231e-06
 Reference value :  2.50333e-06
 Reference value :  2.50455e-06
 Reference value :  2.50549e-06
 Reference value :  2.50715e-06
 Reference value :  2.50887e-06
 Reference value :  2.51094e-06
 Reference value :  2.51805e-06
 Reference value :  2.55308e-06
 Reference value :  2.75011e-06
 Reference value :  2.75017e-06
 Reference value :  2.75022e-06
 Reference value :  2.75045e-06
 Reference value :  2.75127e-06
 Reference value :  2.75215e-06
 Reference value :  2.75351e-06
 Reference value :  2.75402e-06
 Reference value :  2.75527e-06
 Reference value :  2.75689e-06
 Reference value :  2.76274e-06
 Reference value :  2.79251e-06
 Reference value :  3.00000e-06
 Reference value :  3.00010e-06
 Reference value :  3.00022e-06
 Reference value :  3.00086e-06
 Reference value :  3.00182e-06
 Reference value :  3.00332e-06
 Reference value :  3.00449e-06
 Reference value :  3.00586e-06
 Reference value :  3.00853e-06
 Reference value :  3.01007e-06
 Reference value :  3.01276e-06
 Reference value :  3.01376e-06
 Reference value :  3.01584e-06
 Reference value :  3.01789e-06
 Reference value :  3.02067e-06
 Reference value :  3.03045e-06
 Reference value :  3.04690e-06
 Reference value :  3.06706e-06
 Reference value :  3.07433e-06
 Reference value :  3.08773e-06
 Reference value :  3.09994e-06
 Reference value :  3.12838e-06
 Reference value :  3.17492e-06
 Reference value :  3.25010e-06
 Reference value :  3.25013e-06
 Reference value :  3.25020e-06
 Reference value :  3.25022e-06
 Reference value :  3.25032e-06
 Reference value :  3.25060e-06
 Reference value :  3.25127e-06
 Reference value :  3.25216e-06
 Reference value :  3.25346e-06
 Reference value :  3.25396e-06
 Reference value :  3.25513e-06
 Reference value :  3.25661e-06
 Reference value :  3.26272e-06
 Reference value :  3.28468e-06
 Reference value :  3.29531e-06
 Reference value :  3.30281e-06
 Reference value :  3.31648e-06
 Reference value :  3.34879e-06
 Reference value :  3.39862e-06
 Reference value :  3.50000e-06
 Reference value :  3.50007e-06
 Reference value :  3.50012e-06
 Reference value :  3.50034e-06
 Reference value :  3.50131e-06
 Reference value :  3.50278e-06
 Reference value :  3.50391e-06
 Reference value :  3.50549e-06
 Reference value :  3.50715e-06
 Reference value :  3.50888e-06
 Reference value :  3.51094e-06
 Reference value :  3.52418e-06
 Reference value :  3.65921e-06
 Reference value :  3.75013e-06
 Reference value :  3.75021e-06
 Reference value :  3.75032e-06
 Reference value :  3.75084e-06
 Reference value :  3.75215e-06
 Reference value :  3.75350e-06
 Reference value :  3.75460e-06
 Reference value :  3.75597e-06
 Reference value :  3.76019e-06
 Reference value :  3.79257e-06
 Reference value :  4.00001e-06
 Reference value :  4.00010e-06
 Reference value :  4.00016e-06
 Reference value :  4.00052e-06
 Reference value :  4.00182e-06
 Reference value :  4.00278e-06
 Reference value :  4.00390e-06
 Reference value :  4.00521e-06
 Reference value :  4.00653e-06
 Reference value :  4.01007e-06
 Reference value :  4.01288e-06
 Reference value :  4.01490e-06
 Reference value :  4.01723e-06
 Reference value :  4.01961e-06
 Reference value :  4.02703e-06
 Reference value :  4.03826e-06
 Reference value :  4.04508e-06
 Reference value :  4.05822e-06
 Reference value :  4.08637e-06
 Reference value :  4.22521e-06
 Reference value :  4.25017e-06
 Reference value :  4.25026e-06
 Reference value :  4.25054e-06
 Reference value :  4.25147e-06
 Reference value :  4.25245e-06
 Reference value :  4.25312e-06
 Reference value :  4.25442e-06
 Reference value :  4.25667e-06
 Reference value :  4.26184e-06
 Reference value :  4.31882e-06
 Reference value :  4.50000e-06
 Reference value :  4.50007e-06
 Reference value :  4.50012e-06
 Reference value :  4.50035e-06
 Reference value :  4.50145e-06
 Reference value :  4.50243e-06
 Reference value :  4.50347e-06
 Reference value :  4.50471e-06
 Reference value :  4.50648e-06
 Reference value :  4.50836e-06
 Reference value :  4.51025e-06
 Reference value :  4.51137e-06
 Reference value :  4.51876e-06
 Reference value :  4.55969e-06
 Reference value :  4.75011e-06
 Reference value :  4.75020e-06
 Reference value :  4.75026e-06
 Reference value :  4.75039e-06
 Reference value :  4.75099e-06
 Reference value :  4.75194e-06
 Reference value :  4.75311e-06
 Reference value :  4.75440e-06
 Reference value :  4.75567e-06
 Reference value :  4.75643e-06
 Reference value :  4.75808e-06
 Reference value :  4.76191e-06
 Reference value :  4.76721e-06
 Reference value :  4.78088e-06
 Reference value :  4.81632e-06
 Reference value :  5.00000e-06
 Reference value :  5.00003e-06
 Reference value :  5.00011e-06
 Reference value :  5.00016e-06
 Reference value :  5.00035e-06
 Reference value :  5.00093e-06
 Reference value :  5.00196e-06
 Reference value :  5.00245e-06
 Reference value :  5.00350e-06
 Reference value :  5.00459e-06
 Reference value :  5.00583e-06
 Reference value :  5.00731e-06
 Reference value :  5.00970e-06
 Reference value :  5.01174e-06
 Reference value :  5.01377e-06
 Reference value :  5.01552e-06
 Reference value :  5.01870e-06
 Reference value :  5.02931e-06
 Reference value :  5.04092e-06
 Reference value :  5.05015e-06
 Reference value :  5.05808e-06
 Reference value :  5.07961e-06
 Reference value :  5.11769e-06
 Reference value :  5.15969e-06
 Reference value :  5.18384e-06
 Reference value :  5.21961e-06
 Reference value :  5.25013e-06
 Reference value :  5.25021e-06
 Reference value :  5.25032e-06
 Reference value :  5.25070e-06
 Reference value :  5.25142e-06
 Reference value :  5.25239e-06
 Reference value :  5.25376e-06
 Reference value :  5.25494e-06
 Reference value :  5.25633e-06
 Reference value :  5.25883e-06
 Reference value :  5.27014e-06
 Reference value :  5.42032e-06
 Reference value :  5.50003e-06
 Reference value :  5.50011e-06
 Reference value :  5.50022e-06
 Reference value :  5.50059e-06
 Reference value :  5.50145e-06
 Reference value :  5.50243e-06
 Reference value :  5.50347e-06
 Reference value :  5.50471e-06
 Reference value :  5.50648e-06
 Reference value :  5.50836e-06
 Reference value :  5.51026e-06
 Reference value :  5.51261e-06
 Reference value :  5.53783e-06
 Reference value :  5.75010e-06
 Reference value :  5.75017e-06
 Reference value :  5.75022e-06
 Reference value :  5.75039e-06
 Reference value :  5.75099e-06
 Reference value :  5.75194e-06
 Reference value :  5.75311e-06
 Reference value :  5.75440e-06
 Reference value :  5.75567e-06
 Reference value :  5.75643e-06
 Reference value :  5.75726e-06
 Reference value :  5.75808e-06
 Reference value :  5.76025e-06
 Reference value :  5.76405e-06
 Reference value :  5.78091e-06
 Reference value :  5.85135e-06
 Reference value :  5.92108e-06
 Reference value :  6.00003e-06
 Reference value :  6.00011e-06
 Reference value :  6.00022e-06
 Reference value :  6.00093e-06
 Reference value :  6.00196e-06
 Reference value :  6.00297e-06
 Reference value :  6.00410e-06
 Reference value :  6.00515e-06
 Reference value :  6.00731e-06
 Reference value :  6.00970e-06
 Reference value :  6.01175e-06
 Reference value :  6.01293e-06
 Reference value :  6.01377e-06
 Reference value :  6.01552e-06
 Reference value :  6.01745e-06
 Reference value :  6.01994e-06
 Reference value :  6.02680e-06
 Reference value :  6.03467e-06
 Reference value :  6.03739e-06
 Reference value :  6.04366e-06
 Reference value :  6.05794e-06
 Reference value :  6.10033e-06
 Reference value :  6.25010e-06
 Reference value :  6.25017e-06
 Reference value :  6.25022e-06
 Reference value :  6.25039e-06
 Reference value :  6.25097e-06
 Reference value :  6.25192e-06
 Reference value :  6.25308e-06
 Reference value :  6.25434e-06
 Reference value :  6.25555e-06
 Reference value :  6.25881e-06
 Reference value :  6.28121e-06
 Reference value :  6.42052e-06
 Reference value :  6.50003e-06
 Reference value :  6.50011e-06
 Reference value :  6.50035e-06
 Reference value :  6.50145e-06
 Reference value :  6.50245e-06
 Reference value :  6.50350e-06
 Reference value :  6.50490e-06
 Reference value :  6.50641e-06
 Reference value :  6.50925e-06
 Reference value :  6.51126e-06
 Reference value :  6.52696e-06
 Reference value :  6.63414e-06
 Reference value :  6.75013e-06
 Reference value :  6.75021e-06
 Reference value :  6.75032e-06
 Reference value :  6.75074e-06
 Reference value :  6.75194e-06
 Reference value :  6.75382e-06
 Reference value :  6.75503e-06
 Reference value :  6.75643e-06
 Reference value :  6.76455e-06
 Reference value :  6.80559e-06
 Reference value :  7.00000e-06
 Reference value :  7.00007e-06
 Reference value :  7.00012e-06
 Reference value :  7.00035e-06
 Reference value :  7.00145e-06
 Reference value :  7.00245e-06
 Reference value :  7.00349e-06
 Reference value :  7.00466e-06
 Reference value :  7.00588e-06
 Reference value :  7.00739e-06
 Reference value :  7.01046e-06
 Reference value :  7.01186e-06
 Reference value :  7.01441e-06
 Reference value :  7.01634e-06
 Reference value :  7.02004e-06
 Reference value :  7.02482e-06
 Reference value :  7.03273e-06
 Reference value :  7.04092e-06
 Reference value :  7.05633e-06
 Reference value :  7.07693e-06
 Reference value :  7.14313e-06
 Reference value :  7.25011e-06
 Reference value :  7.25020e-06
 Reference value :  7.25025e-06
 Reference value :  7.25032e-06
 Reference value :  7.25054e-06
 Reference value :  7.25097e-06
 Reference value :  7.25193e-06
 Reference value :  7.25308e-06
 Reference value :  7.25432e-06
 Reference value :  7.25553e-06
 Reference value :  7.25725e-06
 Reference value :  7.26107e-06
 Reference value :  7.28223e-06
 Reference value :  7.42279e-06
 Reference value :  7.50001e-06
 Reference value :  7.50007e-06
 Reference value :  7.50012e-06
 Reference value :  7.50022e-06
 Reference value :  7.50059e-06
 Reference value :  7.50145e-06
 Reference value :  7.50196e-06
 Reference value :  7.50243e-06
 Reference value :  7.50347e-06
 Reference value :  7.50471e-06
 Reference value :  7.50560e-06
 Reference value :  7.50648e-06
 Reference value :  7.50836e-06
 Reference value :  7.50928e-06
 Reference value :  7.51138e-06
 Reference value :  7.51509e-06
 Reference value :  7.52547e-06
 Reference value :  7.55881e-06
 Reference value :  7.68579e-06
 Reference value :  7.75011e-06
 Reference value :  7.75017e-06
 Reference value :  7.75022e-06
 Reference value :  7.75039e-06
 Reference value :  7.75074e-06
 Reference value :  7.75147e-06
 Reference value :  7.75245e-06
 Reference value :  7.75382e-06
 Reference value :  7.75440e-06
 Reference value :  7.75567e-06
 Reference value :  7.75644e-06
 Reference value :  7.75808e-06
 Reference value :  7.76026e-06
 Reference value :  7.76406e-06
 Reference value :  7.78095e-06
 Reference value :  7.85160e-06
 Reference value :  8.00001e-06
 Reference value :  8.00010e-06
 Reference value :  8.00016e-06
 Reference value :  8.00035e-06
 Reference value :  8.00145e-06
 Reference value :  8.00245e-06
 Reference value :  8.00350e-06
 Reference value :  8.00459e-06
 Reference value :  8.00645e-06
 Reference value :  8.00816e-06
 Reference value :  8.00967e-06
 Reference value :  8.01138e-06
 Reference value :  8.01426e-06
 Reference value :  8.02264e-06
 Reference value :  8.03473e-06
 Reference value :  8.04301e-06
 Reference value :  8.05316e-06
 Reference value :  8.05990e-06
 Reference value :  8.08879e-06
 Reference value :  8.12440e-06
 Reference value :  8.24496e-06
 Reference value :  8.25013e-06
 Reference value :  8.25020e-06
 Reference value :  8.25026e-06
 Reference value :  8.25045e-06
 Reference value :  8.25080e-06
 Reference value :  8.25161e-06
 Reference value :  8.25257e-06
 Reference value :  8.25406e-06
 Reference value :  8.25597e-06
 Reference value :  8.25856e-06
 Reference value :  8.26322e-06
 Reference value :  8.27780e-06
 Reference value :  8.40960e-06
 Reference value :  8.50003e-06
 Reference value :  8.50011e-06
 Reference value :  8.50022e-06
 Reference value :  8.50060e-06
 Reference value :  8.50143e-06
 Reference value :  8.50244e-06
 Reference value :  8.50357e-06
 Reference value :  8.50489e-06
 Reference value :  8.50631e-06
 Reference value :  8.50849e-06
 Reference value :  8.51987e-06
 Reference value :  8.52615e-06
 Reference value :  8.53073e-06
 Reference value :  8.53818e-06
 Reference value :  8.54443e-06
 Reference value :  8.55758e-06
 Reference value :  8.57989e-06
 Reference value :  8.70795e-06
 Reference value :  8.75013e-06
 Reference value :  8.75021e-06
 Reference value :  8.75032e-06
 Reference value :  8.75060e-06
 Reference value :  8.75126e-06
 Reference value :  8.75214e-06
 Reference value :  8.75348e-06
 Reference value :  8.75398e-06
 Reference value :  8.75521e-06
 Reference value :  8.75593e-06
 Reference value :  8.75824e-06
 Reference value :  8.76296e-06
 Reference value :  8.77566e-06
 Reference value :  8.89056e-06
 Reference value :  9.00001e-06
 Reference value :  9.00007e-06
 Reference value :  9.00011e-06
 Reference value :  9.00016e-06
 Reference value :  9.00034e-06
 Reference value :  9.00052e-06
 Reference value :  9.00131e-06
 Reference value :  9.00231e-06
 Reference value :  9.00332e-06
 Reference value :  9.00454e-06
 Reference value :  9.00636e-06
 Reference value :  9.00757e-06
 Reference value :  9.00872e-06
 Reference value :  9.01109e-06
 Reference value :  9.01366e-06
 Reference value :  9.01711e-06
 Reference value :  9.02694e-06
 Reference value :  9.04694e-06
 Reference value :  9.10653e-06
 Reference value :  9.17301e-06
 Reference value :  9.25011e-06
 Reference value :  9.25013e-06
 Reference value :  9.25020e-06
 Reference value :  9.25026e-06
 Reference value :  9.25044e-06
 Reference value :  9.25083e-06
 Reference value :  9.25170e-06
 Reference value :  9.25270e-06
 Reference value :  9.25349e-06
 Reference value :  9.25401e-06
 Reference value :  9.25526e-06
 Reference value :  9.25689e-06
 Reference value :  9.26019e-06
 Reference value :  9.26785e-06
 Reference value :  9.29265e-06
 Reference value :  9.38488e-06
 Reference value :  9.50001e-06
 Reference value :  9.50007e-06
 Reference value :  9.50012e-06
 Reference value :  9.50022e-06
 Reference value :  9.50052e-06
 Reference value :  9.50131e-06
 Reference value :  9.50231e-06
 Reference value :  9.50278e-06
 Reference value :  9.50332e-06
 Reference value :  9.50448e-06
 Reference value :  9.50585e-06
 Reference value :  9.50748e-06
 Reference value :  9.51005e-06
 Reference value :  9.51149e-06
 Reference value :  9.51274e-06
 Reference value :  9.51374e-06
 Reference value :  9.51582e-06
 Reference value :  9.51786e-06
 Reference value :  9.52237e-06
 Reference value :  9.53035e-06
 Reference value :  9.55342e-06
 Reference value :  9.62445e-06
 Reference value :  9.66149e-06
 Reference value :  9.68693e-06
 Reference value :  9.69780e-06
 Reference value :  9.71571e-06
 Reference value :  9.73236e-06
 Reference value :  9.75011e-06
 Reference value :  9.75017e-06
 Reference value :  9.75021e-06
 Reference value :  9.75032e-06
 Reference value :  9.75060e-06
 Reference value :  9.75126e-06
 Reference value :  9.75170e-06
 Reference value :  9.75271e-06
 Reference value :  9.75344e-06
 Reference value :  9.75394e-06
 Reference value :  9.75512e-06
 Reference value :  9.75582e-06
 Reference value :  9.75659e-06
 Reference value :  9.75812e-06
 Reference value :  9.76268e-06
 Reference value :  9.77423e-06
 Reference value :  9.82042e-06
 Reference value :  1.00000e-05
 Reference value :  1.00000e-05
 Reference value :  1.00001e-05
 Reference value :  1.00002e-05
 Reference value :  1.00002e-05
 Reference value :  1.00003e-05
 Reference value :  1.00009e-05
 Reference value :  1.00017e-05
 Reference value :  1.00032e-05
 Reference value :  1.00044e-05
 Reference value :  1.00052e-05
 Reference value :  1.00067e-05
 Reference value :  1.00083e-05
 Reference value :  1.00103e-05
 Reference value :  1.00138e-05
 Reference value :  1.00420e-05
 Reference value :  1.02501e-05
 Reference value :  1.02502e-05
 Reference value :  1.02502e-05
 Reference value :  1.02503e-05
 Reference value :  1.02506e-05
 Reference value :  1.02517e-05
 Reference value :  1.02535e-05
 Reference value :  1.02546e-05
 Reference value :  1.02560e-05
 Reference value :  1.02577e-05
 Reference value :  1.02598e-05
 Reference value :  1.02668e-05
 Reference value :  1.02947e-05
 Reference value :  1.04144e-05
 Reference value :  1.05000e-05
 Reference value :  1.05001e-05
 Reference value :  1.05002e-05
 Reference value :  1.05005e-05
 Reference value :  1.05013e-05
 Reference value :  1.05023e-05
 Reference value :  1.05033e-05
 Reference value :  1.05046e-05
 Reference value :  1.05058e-05
 Reference value :  1.05083e-05
 Reference value :  1.05105e-05
 Reference value :  1.05127e-05
 Reference value :  1.05143e-05
 Reference value :  1.05163e-05
 Reference value :  1.05183e-05
 Reference value :  1.05225e-05
 Reference value :  1.05358e-05
 Reference value :  1.05684e-05
 Reference value :  1.05773e-05
 Reference value :  1.05818e-05
 Reference value :  1.05904e-05
 Reference value :  1.06014e-05
 Reference value :  1.06419e-05
 Reference value :  1.07501e-05
 Reference value :  1.07502e-05
 Reference value :  1.07502e-05
 Reference value :  1.07504e-05
 Reference value :  1.07508e-05
 Reference value :  1.07517e-05
 Reference value :  1.07535e-05
 Reference value :  1.07546e-05
 Reference value :  1.07560e-05
 Reference value :  1.07583e-05
 Reference value :  1.07677e-05
 Reference value :  1.08265e-05
 Reference value :  1.10000e-05
 Reference value :  1.10001e-05
 Reference value :  1.10002e-05
 Reference value :  1.10005e-05
 Reference value :  1.10013e-05
 Reference value :  1.10023e-05
 Reference value :  1.10033e-05
 Reference value :  1.10045e-05
 Reference value :  1.10064e-05
 Reference value :  1.10071e-05
 Reference value :  1.10089e-05
 Reference value :  1.10109e-05
 Reference value :  1.10240e-05
 Reference value :  1.11567e-05
 Reference value :  1.12502e-05
 Reference value :  1.12502e-05
 Reference value :  1.12503e-05
 Reference value :  1.12508e-05
 Reference value :  1.12517e-05
 Reference value :  1.12527e-05
 Reference value :  1.12540e-05
 Reference value :  1.12553e-05
 Reference value :  1.12580e-05
 Reference value :  1.12677e-05
 Reference value :  1.13228e-05
 Reference value :  1.15000e-05
 Reference value :  1.15001e-05
 Reference value :  1.15002e-05
 Reference value :  1.15005e-05
 Reference value :  1.15018e-05
 Reference value :  1.15028e-05
 Reference value :  1.15033e-05
 Reference value :  1.15045e-05
 Reference value :  1.15059e-05
 Reference value :  1.15085e-05
 Reference value :  1.15101e-05
 Reference value :  1.15128e-05
 Reference value :  1.15137e-05
 Reference value :  1.15158e-05
 Reference value :  1.15178e-05
 Reference value :  1.15221e-05
 Reference value :  1.15466e-05
 Reference value :  1.15677e-05
 Reference value :  1.15827e-05
 Reference value :  1.15959e-05
 Reference value :  1.16179e-05
 Reference value :  1.17283e-05
 Reference value :  1.17501e-05
 Reference value :  1.17502e-05
 Reference value :  1.17503e-05
 Reference value :  1.17508e-05
 Reference value :  1.17517e-05
 Reference value :  1.17527e-05
 Reference value :  1.17540e-05
 Reference value :  1.17551e-05
 Reference value :  1.17566e-05
 Reference value :  1.17627e-05
 Reference value :  1.17849e-05
 Reference value :  1.17956e-05
 Reference value :  1.18103e-05
 Reference value :  1.18344e-05
 Reference value :  1.18991e-05
 Reference value :  1.20000e-05
 Reference value :  1.20001e-05
 Reference value :  1.20002e-05
 Reference value :  1.20005e-05
 Reference value :  1.20013e-05
 Reference value :  1.20023e-05
 Reference value :  1.20033e-05
 Reference value :  1.20055e-05
 Reference value :  1.20071e-05
 Reference value :  1.20089e-05
 Reference value :  1.20109e-05
 Reference value :  1.20179e-05
 Reference value :  1.20518e-05
 Reference value :  1.22501e-05
 Reference value :  1.22502e-05
 Reference value :  1.22502e-05
 Reference value :  1.22504e-05
 Reference value :  1.22513e-05
 Reference value :  1.22522e-05
 Reference value :  1.22535e-05
 Reference value :  1.22546e-05
 Reference value :  1.22569e-05
 Reference value :  1.22627e-05
 Reference value :  1.22922e-05
 Reference value :  1.25000e-05
 Reference value :  1.25001e-05
 Reference value :  1.25001e-05
 Reference value :  1.25003e-05
 Reference value :  1.25013e-05
 Reference value :  1.25028e-05
 Reference value :  1.25039e-05
 Reference value :  1.25052e-05
 Reference value :  1.25065e-05
 Reference value :  1.25101e-05
 Reference value :  1.25115e-05
 Reference value :  1.25139e-05
 Reference value :  1.25161e-05
 Reference value :  1.25171e-05
 Reference value :  1.25194e-05
 Reference value :  1.25211e-05
 Reference value :  1.25262e-05
 Reference value :  1.25339e-05
 Reference value :  1.25375e-05
 Reference value :  1.25415e-05
 Reference value :  1.25446e-05
 Reference value :  1.25526e-05
 Reference value :  1.25635e-05
 Reference value :  1.25844e-05
 Reference value :  1.26553e-05
 Reference value :  1.27501e-05
 Reference value :  1.27502e-05
 Reference value :  1.27502e-05
 Reference value :  1.27503e-05
 Reference value :  1.27505e-05
 Reference value :  1.27510e-05
 Reference value :  1.27519e-05
 Reference value :  1.27531e-05
 Reference value :  1.27544e-05
 Reference value :  1.27557e-05
 Reference value :  1.27567e-05
 Reference value :  1.27618e-05
 Reference value :  1.27888e-05
 Reference value :  1.29925e-05
 Reference value :  1.30000e-05
 Reference value :  1.30001e-05
 Reference value :  1.30002e-05
 Reference value :  1.30009e-05
 Reference value :  1.30024e-05
 Reference value :  1.30035e-05
 Reference value :  1.30047e-05
 Reference value :  1.30065e-05
 Reference value :  1.30084e-05
 Reference value :  1.30103e-05
 Reference value :  1.30126e-05
 Reference value :  1.30255e-05
 Reference value :  1.31013e-05
 Reference value :  1.32501e-05
 Reference value :  1.32502e-05
 Reference value :  1.32503e-05
 Reference value :  1.32505e-05
 Reference value :  1.32515e-05
 Reference value :  1.32524e-05
 Reference value :  1.32538e-05
 Reference value :  1.32544e-05
 Reference value :  1.32557e-05
 Reference value :  1.32573e-05
 Reference value :  1.32590e-05
 Reference value :  1.32641e-05
 Reference value :  1.32809e-05
 Reference value :  1.33510e-05
 Reference value :  1.35000e-05
 Reference value :  1.35001e-05
 Reference value :  1.35002e-05
 Reference value :  1.35006e-05
 Reference value :  1.35015e-05
 Reference value :  1.35024e-05
 Reference value :  1.35035e-05
 Reference value :  1.35046e-05
 Reference value :  1.35058e-05
 Reference value :  1.35073e-05
 Reference value :  1.35097e-05
 Reference value :  1.35107e-05
 Reference value :  1.35129e-05
 Reference value :  1.35138e-05
 Reference value :  1.35155e-05
 Reference value :  1.35187e-05
 Reference value :  1.35243e-05
 Reference value :  1.35348e-05
 Reference value :  1.35453e-05
 Reference value :  1.35491e-05
 Reference value :  1.35559e-05
 Reference value :  1.35735e-05
 Reference value :  1.36153e-05
 Reference value :  1.36483e-05
 Reference value :  1.36686e-05
 Reference value :  1.36882e-05
 Reference value :  1.37201e-05
 Reference value :  1.37501e-05
 Reference value :  1.37502e-05
 Reference value :  1.37503e-05
 Reference value :  1.37504e-05
 Reference value :  1.37510e-05
 Reference value :  1.37519e-05
 Reference value :  1.37531e-05
 Reference value :  1.37543e-05
 Reference value :  1.37555e-05
 Reference value :  1.37572e-05
 Reference value :  1.37610e-05
 Reference value :  1.37816e-05
 Reference value :  1.39981e-05
 Reference value :  1.40000e-05
 Reference value :  1.40001e-05
 Reference value :  1.40001e-05
 Reference value :  1.40002e-05
 Reference value :  1.40009e-05
 Reference value :  1.40020e-05
 Reference value :  1.40029e-05
 Reference value :  1.40041e-05
 Reference value :  1.40056e-05
 Reference value :  1.40074e-05
 Reference value :  1.40093e-05
 Reference value :  1.40114e-05
 Reference value :  1.40255e-05
 Reference value :  1.41011e-05
 Reference value :  1.42501e-05
 Reference value :  1.42502e-05
 Reference value :  1.42502e-05
 Reference value :  1.42504e-05
 Reference value :  1.42510e-05
 Reference value :  1.42519e-05
 Reference value :  1.42531e-05
 Reference value :  1.42544e-05
 Reference value :  1.42557e-05
 Reference value :  1.42573e-05
 Reference value :  1.42590e-05
 Reference value :  1.42641e-05
 Reference value :  1.42948e-05
 Reference value :  1.44211e-05
 Reference value :  1.45000e-05
 Reference value :  1.45001e-05
 Reference value :  1.45002e-05
 Reference value :  1.45009e-05
 Reference value :  1.45020e-05
 Reference value :  1.45030e-05
 Reference value :  1.45035e-05
 Reference value :  1.45046e-05
 Reference value :  1.45058e-05
 Reference value :  1.45073e-05
 Reference value :  1.45097e-05
 Reference value :  1.45107e-05
 Reference value :  1.45129e-05
 Reference value :  1.45145e-05
 Reference value :  1.45155e-05
 Reference value :  1.45164e-05
 Reference value :  1.45184e-05
 Reference value :  1.45213e-05
 Reference value :  1.45262e-05
 Reference value :  1.45337e-05
 Reference value :  1.45364e-05
 Reference value :  1.45421e-05
 Reference value :  1.45489e-05
 Reference value :  1.45781e-05
 Reference value :  1.46908e-05
 Reference value :  1.47501e-05
 Reference value :  1.47502e-05
 Reference value :  1.47502e-05
 Reference value :  1.47503e-05
 Reference value :  1.47505e-05
 Reference value :  1.47510e-05
 Reference value :  1.47519e-05
 Reference value :  1.47531e-05
 Reference value :  1.47543e-05
 Reference value :  1.47555e-05
 Reference value :  1.47563e-05
 Reference value :  1.47588e-05
 Reference value :  1.47642e-05
 Reference value :  1.47812e-05
 Reference value :  1.48406e-05
 Reference value :  1.50000e-05
 Reference value :  1.50001e-05
 Reference value :  1.50001e-05
 Reference value :  1.50002e-05
 Reference value :  1.50006e-05
 Reference value :  1.50015e-05
 Reference value :  1.50024e-05
 Reference value :  1.50035e-05
 Reference value :  1.50049e-05
 Reference value :  1.50064e-05
 Reference value :  1.50083e-05
 Reference value :  1.50102e-05
 Reference value :  1.50113e-05
 Reference value :  1.50190e-05
 Reference value :  1.51328e-05
 Reference value :  1.52501e-05
 Reference value :  1.52502e-05
 Reference value :  1.52503e-05
 Reference value :  1.52505e-05
 Reference value :  1.52515e-05
 Reference value :  1.52531e-05
 Reference value :  1.52544e-05
 Reference value :  1.52564e-05
 Reference value :  1.52645e-05
 Reference value :  1.53054e-05
 Reference value :  1.55000e-05
 Reference value :  1.55011e-05
 Reference value :  1.55044e-05
 Reference value :  1.55064e-05
 Reference value :  1.55082e-05
 Reference value :  1.55106e-05
 Reference value :  1.55119e-05
 Reference value :  1.55143e-05
 Reference value :  1.55164e-05
 Reference value :  1.55185e-05
 Reference value :  1.55229e-05
 Reference value :  1.55334e-05
 Reference value :  1.55415e-05
 Reference value :  1.55567e-05
 Reference value :  1.55771e-05
 Reference value :  1.57108e-05
 Reference value :  1.57501e-05
 Reference value :  1.57502e-05
 Reference value :  1.57503e-05
 Reference value :  1.57504e-05
 Reference value :  1.57507e-05
 Reference value :  1.57511e-05
 Reference value :  1.57515e-05
 Reference value :  1.57524e-05
 Reference value :  1.57537e-05
 Reference value :  1.57542e-05
 Reference value :  1.57554e-05
 Reference value :  1.57561e-05
 Reference value :  1.57584e-05
 Reference value :  1.57634e-05
 Reference value :  1.57777e-05
 Reference value :  1.58221e-05
 Reference value :  1.59709e-05
 Reference value :  1.60000e-05
 Reference value :  1.60001e-05
 Reference value :  1.60001e-05
 Reference value :  1.60002e-05
 Reference value :  1.60006e-05
 Reference value :  1.60015e-05
 Reference value :  1.60024e-05
 Reference value :  1.60035e-05
 Reference value :  1.60041e-05
 Reference value :  1.60056e-05
 Reference value :  1.60074e-05
 Reference value :  1.60093e-05
 Reference value :  1.60114e-05
 Reference value :  1.60187e-05
 Reference value :  1.60376e-05
 Reference value :  1.61012e-05
 Reference value :  1.62501e-05
 Reference value :  1.62502e-05
 Reference value :  1.62502e-05
 Reference value :  1.62504e-05
 Reference value :  1.62510e-05
 Reference value :  1.62519e-05
 Reference value :  1.62531e-05
 Reference value :  1.62544e-05
 Reference value :  1.62557e-05
 Reference value :  1.62564e-05
 Reference value :  1.62581e-05
 Reference value :  1.62619e-05
 Reference value :  1.62729e-05
 Reference value :  1.63514e-05
 Reference value :  1.65000e-05
 Reference value :  1.65001e-05
 Reference value :  1.65001e-05
 Reference value :  1.65003e-05
 Reference value :  1.65015e-05
 Reference value :  1.65024e-05
 Reference value :  1.65035e-05
 Reference value :  1.65046e-05
 Reference value :  1.65065e-05
 Reference value :  1.65090e-05
 Reference value :  1.65105e-05
 Reference value :  1.65123e-05
 Reference value :  1.65198e-05
 Reference value :  1.65347e-05
 Reference value :  1.65532e-05
 Reference value :  1.65599e-05
 Reference value :  1.65888e-05
 Reference value :  1.66445e-05
 Reference value :  1.67501e-05
 Reference value :  1.67501e-05
 Reference value :  1.67502e-05
 Reference value :  1.67503e-05
 Reference value :  1.67504e-05
 Reference value :  1.67508e-05
 Reference value :  1.67516e-05
 Reference value :  1.67526e-05
 Reference value :  1.67541e-05
 Reference value :  1.67560e-05
 Reference value :  1.67602e-05
 Reference value :  1.67972e-05
 Reference value :  1.70000e-05
 Reference value :  1.70015e-05
 Reference value :  1.70061e-05
 Reference value :  1.70093e-05
 Reference value :  1.70164e-05
 Reference value :  1.70255e-05
 Reference value :  1.70289e-05
 Reference value :  1.70316e-05
 Reference value :  1.70339e-05
 Reference value :  1.70358e-05
 Reference value :  1.70373e-05
 Reference value :  1.70431e-05
 Reference value :  1.70489e-05
 Reference value :  1.70532e-05
 Reference value :  1.70657e-05
 Reference value :  1.70974e-05
 Reference value :  1.72005e-05
 Reference value :  1.72501e-05
 Reference value :  1.72502e-05
 Reference value :  1.72502e-05
 Reference value :  1.72503e-05
 Reference value :  1.72506e-05
 Reference value :  1.72513e-05
 Reference value :  1.72521e-05
 Reference value :  1.72535e-05
 Reference value :  1.72546e-05
 Reference value :  1.72559e-05
 Reference value :  1.72583e-05
 Reference value :  1.72758e-05
 Reference value :  1.73906e-05
 Reference value :  1.75000e-05
 Reference value :  1.75001e-05
 Reference value :  1.75002e-05
 Reference value :  1.75002e-05
 Reference value :  1.75005e-05
 Reference value :  1.75009e-05
 Reference value :  1.75018e-05
 Reference value :  1.75028e-05
 Reference value :  1.75033e-05
 Reference value :  1.75045e-05
 Reference value :  1.75064e-05
 Reference value :  1.75076e-05
 Reference value :  1.75087e-05
 Reference value :  1.75111e-05
 Reference value :  1.75137e-05
 Reference value :  1.75154e-05
 Reference value :  1.75191e-05
 Reference value :  1.75272e-05
 Reference value :  1.75476e-05
 Reference value :  1.76100e-05
 Reference value :  1.77501e-05
 Reference value :  1.77501e-05
 Reference value :  1.77502e-05
 Reference value :  1.77503e-05
 Reference value :  1.77504e-05
 Reference value :  1.77508e-05
 Reference value :  1.77517e-05
 Reference value :  1.77527e-05
 Reference value :  1.77535e-05
 Reference value :  1.77540e-05
 Reference value :  1.77553e-05
 Reference value :  1.77569e-05
 Reference value :  1.77627e-05
 Reference value :  1.77927e-05
 Reference value :  1.80000e-05
 Reference value :  1.80021e-05
 Reference value :  1.80084e-05
 Reference value :  1.80121e-05
 Reference value :  1.80134e-05
 Reference value :  1.80159e-05
 Reference value :  1.80187e-05
 Reference value :  1.80253e-05
 Reference value :  1.80532e-05
 Reference value :  1.81241e-05
 Reference value :  1.81672e-05
 Reference value :  1.81967e-05
 Reference value :  1.82107e-05
 Reference value :  1.82215e-05
 Reference value :  1.82501e-05
 Reference value :  1.82502e-05
 Reference value :  1.82502e-05
 Reference value :  1.82504e-05
 Reference value :  1.82508e-05
 Reference value :  1.82517e-05
 Reference value :  1.82527e-05
 Reference value :  1.82536e-05
 Reference value :  1.82546e-05
 Reference value :  1.82559e-05
 Reference value :  1.82600e-05
 Reference value :  1.82924e-05
 Reference value :  1.85000e-05
 Reference value :  1.85001e-05
 Reference value :  1.85001e-05
 Reference value :  1.85002e-05
 Reference value :  1.85005e-05
 Reference value :  1.85013e-05
 Reference value :  1.85022e-05
 Reference value :  1.85032e-05
 Reference value :  1.85052e-05
 Reference value :  1.85067e-05
 Reference value :  1.85083e-05
 Reference value :  1.85115e-05
 Reference value :  1.85251e-05
 Reference value :  1.87496e-05
 Reference value :  1.87501e-05
 Reference value :  1.87502e-05
 Reference value :  1.87503e-05
 Reference value :  1.87508e-05
 Reference value :  1.87517e-05
 Reference value :  1.87527e-05
 Reference value :  1.87540e-05
 Reference value :  1.87553e-05
 Reference value :  1.87568e-05
 Reference value :  1.87587e-05
 Reference value :  1.87634e-05
 Reference value :  1.87801e-05
 Reference value :  1.89135e-05
 Reference value :  1.90000e-05
 Reference value :  1.90001e-05
 Reference value :  1.90002e-05
 Reference value :  1.90009e-05
 Reference value :  1.90018e-05
 Reference value :  1.90028e-05
 Reference value :  1.90039e-05
 Reference value :  1.90058e-05
 Reference value :  1.90073e-05
 Reference value :  1.90094e-05
 Reference value :  1.90115e-05
 Reference value :  1.90135e-05
 Reference value :  1.90153e-05
 Reference value :  1.90173e-05
 Reference value :  1.90196e-05
 Reference value :  1.90274e-05
 Reference value :  1.90429e-05
 Reference value :  1.90630e-05
 Reference value :  1.90720e-05
 Reference value :  1.90785e-05
 Reference value :  1.90901e-05
 Reference value :  1.91079e-05
 Reference value :  1.91275e-05
 Reference value :  1.91645e-05
 Reference value :  1.92501e-05
 Reference value :  1.92502e-05
 Reference value :  1.92502e-05
 Reference value :  1.92504e-05
 Reference value :  1.92513e-05
 Reference value :  1.92521e-05
 Reference value :  1.92535e-05
 Reference value :  1.92546e-05
 Reference value :  1.92560e-05
 Reference value :  1.92601e-05
 Reference value :  1.92764e-05
 Reference value :  1.93924e-05
 Reference value :  1.95020e-05
 Reference value :  1.95059e-05
 Reference value :  1.95079e-05
 Reference value :  1.95122e-05
 Reference value :  1.95163e-05
 Reference value :  1.95279e-05
 Reference value :  1.95642e-05
 Reference value :  1.97061e-05
 Reference value :  1.97501e-05
 Reference value :  1.97502e-05
 Reference value :  1.97503e-05
 Reference value :  1.97506e-05
 Reference value :  1.97513e-05
 Reference value :  1.97521e-05
 Reference value :  1.97527e-05
 Reference value :  1.97536e-05
 Reference value :  1.97547e-05
 Reference value :  1.97552e-05
 Reference value :  1.97568e-05
 Reference value :  1.97601e-05
 Reference value :  1.97673e-05
 Reference value :  1.98279e-05
 Reference value :  2.00000e-05
 Reference value :  2.00000e-05
 Reference value :  2.00001e-05
 Reference value :  2.00002e-05
 Reference value :  2.00003e-05
 Reference value :  2.00009e-05
 Reference value :  2.00018e-05
 Reference value :  2.00028e-05
 Reference value :  2.00033e-05
 Reference value :  2.00045e-05
 Reference value :  2.00059e-05
 Reference value :  2.00075e-05
 Reference value :  2.00101e-05
 Reference value :  2.00128e-05
 Reference value :  2.00138e-05
 Reference value :  2.00158e-05
 Reference value :  2.00168e-05
 Reference value :  2.00191e-05
 Reference value :  2.00224e-05
 Reference value :  2.00304e-05
 Reference value :  2.00469e-05
 Reference value :  2.00671e-05
 Reference value :  2.00744e-05
 Reference value :  2.00816e-05
 Reference value :  2.00879e-05
 Reference value :  2.01000e-05
 Reference value :  2.01286e-05
 Reference value :  2.01755e-05
 Reference value :  2.02501e-05
 Reference value :  2.02501e-05
 Reference value :  2.02502e-05
 Reference value :  2.02503e-05
 Reference value :  2.02504e-05
 Reference value :  2.02508e-05
 Reference value :  2.02517e-05
 Reference value :  2.02527e-05
 Reference value :  2.02535e-05
 Reference value :  2.02540e-05
 Reference value :  2.02551e-05
 Reference value :  2.02558e-05
 Reference value :  2.02581e-05
 Reference value :  2.02627e-05
 Reference value :  2.02745e-05
 Reference value :  2.02847e-05
 Reference value :  2.02953e-05
 Reference value :  2.03099e-05
 Reference value :  2.03340e-05
 Reference value :  2.03988e-05
 Reference value :  2.05000e-05
 Reference value :  2.05001e-05
 Reference value :  2.05003e-05
 Reference value :  2.05008e-05
 Reference value :  2.05017e-05
 Reference value :  2.05021e-05
 Reference value :  2.05031e-05
 Reference value :  2.05050e-05
 Reference value :  2.05065e-05
 Reference value :  2.05083e-05
 Reference value :  2.05118e-05
 Reference value :  2.05275e-05
 Reference value :  2.06132e-05
 Reference value :  2.07501e-05
 Reference value :  2.07502e-05
 Reference value :  2.07502e-05
 Reference value :  2.07504e-05
 Reference value :  2.07513e-05
 Reference value :  2.07521e-05
 Reference value :  2.07535e-05
 Reference value :  2.07546e-05
 Reference value :  2.07569e-05
 Reference value :  2.07627e-05
 Reference value :  2.07921e-05
 Reference value :  2.10000e-05
 Reference value :  2.10001e-05
 Reference value :  2.10002e-05
 Reference value :  2.10003e-05
 Reference value :  2.10009e-05
 Reference value :  2.10018e-05
 Reference value :  2.10028e-05
 Reference value :  2.10039e-05
 Reference value :  2.10052e-05
 Reference value :  2.10065e-05
 Reference value :  2.10085e-05
 Reference value :  2.10101e-05
 Reference value :  2.10129e-05
 Reference value :  2.10149e-05
 Reference value :  2.10171e-05
 Reference value :  2.10194e-05
 Reference value :  2.10229e-05
 Reference value :  2.10292e-05
 Reference value :  2.10339e-05
 Reference value :  2.10375e-05
 Reference value :  2.10446e-05
 Reference value :  2.10527e-05
 Reference value :  2.10635e-05
 Reference value :  2.10845e-05
 Reference value :  2.11556e-05
 Reference value :  2.12501e-05
 Reference value :  2.12502e-05
 Reference value :  2.12502e-05
 Reference value :  2.12503e-05
 Reference value :  2.12505e-05
 Reference value :  2.12510e-05
 Reference value :  2.12519e-05
 Reference value :  2.12531e-05
 Reference value :  2.12544e-05
 Reference value :  2.12557e-05
 Reference value :  2.12567e-05
 Reference value :  2.12618e-05
 Reference value :  2.12888e-05
 Reference value :  2.14925e-05
 Reference value :  2.15000e-05
 Reference value :  2.15001e-05
 Reference value :  2.15001e-05
 Reference value :  2.15002e-05
 Reference value :  2.15006e-05
 Reference value :  2.15015e-05
 Reference value :  2.15024e-05
 Reference value :  2.15035e-05
 Reference value :  2.15047e-05
 Reference value :  2.15065e-05
 Reference value :  2.15084e-05
 Reference value :  2.15093e-05
 Reference value :  2.15114e-05
 Reference value :  2.15187e-05
 Reference value :  2.15588e-05
 Reference value :  2.17501e-05
 Reference value :  2.17501e-05
 Reference value :  2.17502e-05
 Reference value :  2.17503e-05
 Reference value :  2.17505e-05
 Reference value :  2.17515e-05
 Reference value :  2.17524e-05
 Reference value :  2.17538e-05
 Reference value :  2.17544e-05
 Reference value :  2.17557e-05
 Reference value :  2.17564e-05
 Reference value :  2.17581e-05
 Reference value :  2.17619e-05
 Reference value :  2.17729e-05
 Reference value :  2.18510e-05
 Reference value :  2.20013e-05
 Reference value :  2.20039e-05
 Reference value :  2.20052e-05
 Reference value :  2.20078e-05
 Reference value :  2.20103e-05
 Reference value :  2.20113e-05
 Reference value :  2.20124e-05
 Reference value :  2.20144e-05
 Reference value :  2.20163e-05
 Reference value :  2.20183e-05
 Reference value :  2.20210e-05
 Reference value :  2.20306e-05
 Reference value :  2.20411e-05
 Reference value :  2.20500e-05
 Reference value :  2.20567e-05
 Reference value :  2.20753e-05
 Reference value :  2.21266e-05
 Reference value :  2.21553e-05
 Reference value :  2.21808e-05
 Reference value :  2.22200e-05
 Reference value :  2.22501e-05
 Reference value :  2.22502e-05
 Reference value :  2.22503e-05
 Reference value :  2.22504e-05
 Reference value :  2.22505e-05
 Reference value :  2.22509e-05
 Reference value :  2.22515e-05
 Reference value :  2.22529e-05
 Reference value :  2.22542e-05
 Reference value :  2.22561e-05
 Reference value :  2.22604e-05
 Reference value :  2.22780e-05
 Reference value :  2.24609e-05
 Reference value :  2.25001e-05
 Reference value :  2.25002e-05
 Reference value :  2.25006e-05
 Reference value :  2.25020e-05
 Reference value :  2.25029e-05
 Reference value :  2.25041e-05
 Reference value :  2.25056e-05
 Reference value :  2.25074e-05
 Reference value :  2.25093e-05
 Reference value :  2.25114e-05
 Reference value :  2.25255e-05
 Reference value :  2.26007e-05
 Reference value :  2.27501e-05
 Reference value :  2.27502e-05
 Reference value :  2.27503e-05
 Reference value :  2.27505e-05
 Reference value :  2.27515e-05
 Reference value :  2.27531e-05
 Reference value :  2.27544e-05
 Reference value :  2.27564e-05
 Reference value :  2.27581e-05
 Reference value :  2.27603e-05
 Reference value :  2.27672e-05
 Reference value :  2.27947e-05
 Reference value :  2.29206e-05
 Reference value :  2.30013e-05
 Reference value :  2.30039e-05
 Reference value :  2.30052e-05
 Reference value :  2.30078e-05
 Reference value :  2.30102e-05
 Reference value :  2.30113e-05
 Reference value :  2.30136e-05
 Reference value :  2.30153e-05
 Reference value :  2.30173e-05
 Reference value :  2.30195e-05
 Reference value :  2.30229e-05
 Reference value :  2.30280e-05
 Reference value :  2.30354e-05
 Reference value :  2.30382e-05
 Reference value :  2.30445e-05
 Reference value :  2.30590e-05
 Reference value :  2.31022e-05
 Reference value :  2.32501e-05
 Reference value :  2.32502e-05
 Reference value :  2.32503e-05
 Reference value :  2.32504e-05
 Reference value :  2.32507e-05
 Reference value :  2.32511e-05
 Reference value :  2.32515e-05
 Reference value :  2.32524e-05
 Reference value :  2.32543e-05
 Reference value :  2.32563e-05
 Reference value :  2.32608e-05
 Reference value :  2.32795e-05
 Reference value :  2.33261e-05
 Reference value :  2.35000e-05
 Reference value :  2.35001e-05
 Reference value :  2.35001e-05
 Reference value :  2.35003e-05
 Reference value :  2.35015e-05
 Reference value :  2.35024e-05
 Reference value :  2.35035e-05
 Reference value :  2.35049e-05
 Reference value :  2.35064e-05
 Reference value :  2.35083e-05
 Reference value :  2.35102e-05
 Reference value :  2.35124e-05
 Reference value :  2.35269e-05
 Reference value :  2.37501e-05
 Reference value :  2.37502e-05
 Reference value :  2.37502e-05
 Reference value :  2.37503e-05
 Reference value :  2.37507e-05
 Reference value :  2.37515e-05
 Reference value :  2.37524e-05
 Reference value :  2.37538e-05
 Reference value :  2.37550e-05
 Reference value :  2.37564e-05
 Reference value :  2.37612e-05
 Reference value :  2.37829e-05
 Reference value :  2.39398e-05
 Reference value :  2.40000e-05
 Reference value :  2.40001e-05
 Reference value :  2.40002e-05
 Reference value :  2.40006e-05
 Reference value :  2.40015e-05
 Reference value :  2.40024e-05
 Reference value :  2.40035e-05
 Reference value :  2.40047e-05
 Reference value :  2.40059e-05
 Reference value :  2.40087e-05
 Reference value :  2.40119e-05
 Reference value :  2.40144e-05
 Reference value :  2.40163e-05
 Reference value :  2.40188e-05
 Reference value :  2.40248e-05
 Reference value :  2.40327e-05
 Reference value :  2.40409e-05
 Reference value :  2.40499e-05
 Reference value :  2.40564e-05
 Reference value :  2.40699e-05
 Reference value :  2.40772e-05
 Reference value :  2.41110e-05
 Reference value :  2.42055e-05
 Reference value :  2.42501e-05
 Reference value :  2.42502e-05
 Reference value :  2.42502e-05
 Reference value :  2.42503e-05
 Reference value :  2.42505e-05
 Reference value :  2.42510e-05
 Reference value :  2.42519e-05
 Reference value :  2.42531e-05
 Reference value :  2.42543e-05
 Reference value :  2.42564e-05
 Reference value :  2.42644e-05
 Reference value :  2.43424e-05
 Reference value :  2.45000e-05
 Reference value :  2.45001e-05
 Reference value :  2.45002e-05
 Reference value :  2.45006e-05
 Reference value :  2.45015e-05
 Reference value :  2.45024e-05
 Reference value :  2.45035e-05
 Reference value :  2.45047e-05
 Reference value :  2.45056e-05
 Reference value :  2.45065e-05
 Reference value :  2.45084e-05
 Reference value :  2.45103e-05
 Reference value :  2.45114e-05
 Reference value :  2.45187e-05
 Reference value :  2.45376e-05
 Reference value :  2.46009e-05
 Reference value :  2.47501e-05
 Reference value :  2.47501e-05
 Reference value :  2.47502e-05
 Reference value :  2.47503e-05
 Reference value :  2.47507e-05
 Reference value :  2.47519e-05
 Reference value :  2.47531e-05
 Reference value :  2.47544e-05
 Reference value :  2.47557e-05
 Reference value :  2.47573e-05
 Reference value :  2.47590e-05
 Reference value :  2.47619e-05
 Reference value :  2.47672e-05
 Reference value :  2.47948e-05
 Reference value :  2.49216e-05
 Reference value :  2.50000e-05
 Reference value :  2.50000e-05
 Reference value :  2.50001e-05
 Reference value :  2.50001e-05
 Reference value :  2.50002e-05
 Reference value :  2.50006e-05
 Reference value :  2.50015e-05
 Reference value :  2.50020e-05
 Reference value :  2.50030e-05
 Reference value :  2.50035e-05
 Reference value :  2.50041e-05
 Reference value :  2.50046e-05
 Reference value :  2.50058e-05
 Reference value :  2.50073e-05
 Reference value :  2.50082e-05
 Reference value :  2.50097e-05
 Reference value :  2.50114e-05
 Reference value :  2.50143e-05
 Reference value :  2.50198e-05
 Reference value :  2.50347e-05
 Reference value :  2.50430e-05
 Reference value :  2.50532e-05
 Reference value :  2.50665e-05
 Reference value :  2.50888e-05
 Reference value :  2.51244e-05
 Reference value :  2.51846e-05
 Reference value :  2.52501e-05
 Reference value :  2.52502e-05
 Reference value :  2.52502e-05
 Reference value :  2.52503e-05
 Reference value :  2.52503e-05
 Reference value :  2.52506e-05
 Reference value :  2.52512e-05
 Reference value :  2.52521e-05
 Reference value :  2.52533e-05
 Reference value :  2.52550e-05
 Reference value :  2.52560e-05
 Reference value :  2.52586e-05
 Reference value :  2.52632e-05
 Reference value :  2.52972e-05
 Reference value :  2.54096e-05
 Reference value :  2.55015e-05
 Reference value :  2.55046e-05
 Reference value :  2.55061e-05
 Reference value :  2.55093e-05
 Reference value :  2.55134e-05
 Reference value :  2.55206e-05
 Reference value :  2.55255e-05
 Reference value :  2.55289e-05
 Reference value :  2.55316e-05
 Reference value :  2.55339e-05
 Reference value :  2.55358e-05
 Reference value :  2.55389e-05
 Reference value :  2.55431e-05
 Reference value :  2.55532e-05
 Reference value :  2.55781e-05
 Reference value :  2.56266e-05
 Reference value :  2.57501e-05
 Reference value :  2.57502e-05
 Reference value :  2.57502e-05
 Reference value :  2.57504e-05
 Reference value :  2.57508e-05
 Reference value :  2.57517e-05
 Reference value :  2.57527e-05
 Reference value :  2.57535e-05
 Reference value :  2.57546e-05
 Reference value :  2.57559e-05
 Reference value :  2.57583e-05
 Reference value :  2.57673e-05
 Reference value :  2.58909e-05
 Reference value :  2.60000e-05
 Reference value :  2.60001e-05
 Reference value :  2.60002e-05
 Reference value :  2.60003e-05
 Reference value :  2.60009e-05
 Reference value :  2.60018e-05
 Reference value :  2.60028e-05
 Reference value :  2.60033e-05
 Reference value :  2.60045e-05
 Reference value :  2.60064e-05
 Reference value :  2.60075e-05
 Reference value :  2.60099e-05
 Reference value :  2.60125e-05
 Reference value :  2.60137e-05
 Reference value :  2.60173e-05
 Reference value :  2.60272e-05
 Reference value :  2.60709e-05
 Reference value :  2.62501e-05
 Reference value :  2.62501e-05
 Reference value :  2.62502e-05
 Reference value :  2.62503e-05
 Reference value :  2.62504e-05
 Reference value :  2.62513e-05
 Reference value :  2.62521e-05
 Reference value :  2.62535e-05
 Reference value :  2.62540e-05
 Reference value :  2.62560e-05
 Reference value :  2.62580e-05
 Reference value :  2.62677e-05
 Reference value :  2.63229e-05
 Reference value :  2.65021e-05
 Reference value :  2.65063e-05
 Reference value :  2.65084e-05
 Reference value :  2.65122e-05
 Reference value :  2.65136e-05
 Reference value :  2.65161e-05
 Reference value :  2.65174e-05
 Reference value :  2.65205e-05
 Reference value :  2.65255e-05
 Reference value :  2.65504e-05
 Reference value :  2.66160e-05
 Reference value :  2.66591e-05
 Reference value :  2.66891e-05
 Reference value :  2.67003e-05
 Reference value :  2.67106e-05
 Reference value :  2.67282e-05
 Reference value :  2.67501e-05
 Reference value :  2.67501e-05
 Reference value :  2.67502e-05
 Reference value :  2.67502e-05
 Reference value :  2.67503e-05
 Reference value :  2.67503e-05
 Reference value :  2.67508e-05
 Reference value :  2.67517e-05
 Reference value :  2.67527e-05
 Reference value :  2.67536e-05
 Reference value :  2.67546e-05
 Reference value :  2.67559e-05
 Reference value :  2.67600e-05
 Reference value :  2.67756e-05
 Reference value :  2.68938e-05
 Reference value :  2.70000e-05
 Reference value :  2.70001e-05
 Reference value :  2.70002e-05
 Reference value :  2.70009e-05
 Reference value :  2.70017e-05
 Reference value :  2.70027e-05
 Reference value :  2.70032e-05
 Reference value :  2.70044e-05
 Reference value :  2.70060e-05
 Reference value :  2.70067e-05
 Reference value :  2.70083e-05
 Reference value :  2.70103e-05
 Reference value :  2.70177e-05
 Reference value :  2.70727e-05
 Reference value :  2.72501e-05
 Reference value :  2.72502e-05
 Reference value :  2.72503e-05
 Reference value :  2.72506e-05
 Reference value :  2.72513e-05
 Reference value :  2.72521e-05
 Reference value :  2.72535e-05
 Reference value :  2.72546e-05
 Reference value :  2.72560e-05
 Reference value :  2.72568e-05
 Reference value :  2.72587e-05
 Reference value :  2.72616e-05
 Reference value :  2.72801e-05
 Reference value :  2.73532e-05
 Reference value :  2.75000e-05
 Reference value :  2.75001e-05
 Reference value :  2.75001e-05
 Reference value :  2.75002e-05
 Reference value :  2.75009e-05
 Reference value :  2.75018e-05
 Reference value :  2.75028e-05
 Reference value :  2.75039e-05
 Reference value :  2.75058e-05
 Reference value :  2.75083e-05
 Reference value :  2.75105e-05
 Reference value :  2.75115e-05
 Reference value :  2.75135e-05
 Reference value :  2.75153e-05
 Reference value :  2.75173e-05
 Reference value :  2.75196e-05
 Reference value :  2.75274e-05
 Reference value :  2.75429e-05
 Reference value :  2.75631e-05
 Reference value :  2.75721e-05
 Reference value :  2.75786e-05
 Reference value :  2.75906e-05
 Reference value :  2.76188e-05
 Reference value :  2.76720e-05
 Reference value :  2.77501e-05
 Reference value :  2.77502e-05
 Reference value :  2.77503e-05
 Reference value :  2.77506e-05
 Reference value :  2.77517e-05
 Reference value :  2.77522e-05
 Reference value :  2.77535e-05
 Reference value :  2.77540e-05
 Reference value :  2.77560e-05
 Reference value :  2.77583e-05
 Reference value :  2.77677e-05
 Reference value :  2.78263e-05
 Reference value :  2.80020e-05
 Reference value :  2.80060e-05
 Reference value :  2.80081e-05
 Reference value :  2.80123e-05
 Reference value :  2.80162e-05
 Reference value :  2.80219e-05
 Reference value :  2.80330e-05
 Reference value :  2.80583e-05
 Reference value :  2.81850e-05
 Reference value :  2.82501e-05
 Reference value :  2.82502e-05
 Reference value :  2.82502e-05
 Reference value :  2.82504e-05
 Reference value :  2.82508e-05
 Reference value :  2.82517e-05
 Reference value :  2.82527e-05
 Reference value :  2.82532e-05
 Reference value :  2.82536e-05
 Reference value :  2.82547e-05
 Reference value :  2.82560e-05
 Reference value :  2.82601e-05
 Reference value :  2.82933e-05
 Reference value :  2.85000e-05
 Reference value :  2.85000e-05
 Reference value :  2.85001e-05
 Reference value :  2.85001e-05
 Reference value :  2.85002e-05
 Reference value :  2.85005e-05
 Reference value :  2.85013e-05
 Reference value :  2.85023e-05
 Reference value :  2.85033e-05
 Reference value :  2.85045e-05
 Reference value :  2.85052e-05
 Reference value :  2.85059e-05
 Reference value :  2.85075e-05
 Reference value :  2.85085e-05
 Reference value :  2.85101e-05
 Reference value :  2.85115e-05
 Reference value :  2.85128e-05
 Reference value :  2.85138e-05
 Reference value :  2.85158e-05
 Reference value :  2.85168e-05
 Reference value :  2.85191e-05
 Reference value :  2.85253e-05
 Reference value :  2.85384e-05
 Reference value :  2.85469e-05
 Reference value :  2.85671e-05
 Reference value :  2.85744e-05
 Reference value :  2.85815e-05
 Reference value :  2.85878e-05
 Reference value :  2.86000e-05
 Reference value :  2.86286e-05
 Reference value :  2.86755e-05
 Reference value :  2.87501e-05
 Reference value :  2.87501e-05
 Reference value :  2.87502e-05
 Reference value :  2.87502e-05
 Reference value :  2.87503e-05
 Reference value :  2.87506e-05
 Reference value :  2.87513e-05
 Reference value :  2.87517e-05
 Reference value :  2.87527e-05
 Reference value :  2.87535e-05
 Reference value :  2.87540e-05
 Reference value :  2.87551e-05
 Reference value :  2.87558e-05
 Reference value :  2.87581e-05
 Reference value :  2.87627e-05
 Reference value :  2.87745e-05
 Reference value :  2.87847e-05
 Reference value :  2.87953e-05
 Reference value :  2.88029e-05
 Reference value :  2.88166e-05
 Reference value :  2.88340e-05
 Reference value :  2.88683e-05
 Reference value :  2.88988e-05
 Reference value :  2.89984e-05
 Reference value :  2.90000e-05
 Reference value :  2.90001e-05
 Reference value :  2.90003e-05
 Reference value :  2.90013e-05
 Reference value :  2.90021e-05
 Reference value :  2.90031e-05
 Reference value :  2.90043e-05
 Reference value :  2.90059e-05
 Reference value :  2.90065e-05
 Reference value :  2.90083e-05
 Reference value :  2.90118e-05
 Reference value :  2.90205e-05
 Reference value :  2.90650e-05
 Reference value :  2.92501e-05
 Reference value :  2.92501e-05
 Reference value :  2.92502e-05
 Reference value :  2.92503e-05
 Reference value :  2.92508e-05
 Reference value :  2.92517e-05
 Reference value :  2.92535e-05
 Reference value :  2.92540e-05
 Reference value :  2.92553e-05
 Reference value :  2.92569e-05
 Reference value :  2.92627e-05
 Reference value :  2.92921e-05
 Reference value :  2.95000e-05
 Reference value :  2.95001e-05
 Reference value :  2.95001e-05
 Reference value :  2.95003e-05
 Reference value :  2.95009e-05
 Reference value :  2.95018e-05
 Reference value :  2.95028e-05
 Reference value :  2.95033e-05
 Reference value :  2.95045e-05
 Reference value :  2.95059e-05
 Reference value :  2.95075e-05
 Reference value :  2.95101e-05
 Reference value :  2.95129e-05
 Reference value :  2.95139e-05
 Reference value :  2.95161e-05
 Reference value :  2.95182e-05
 Reference value :  2.95211e-05
 Reference value :  2.95290e-05
 Reference value :  2.95337e-05
 Reference value :  2.95373e-05
 Reference value :  2.95444e-05
 Reference value :  2.95526e-05
 Reference value :  2.95629e-05
 Reference value :  2.95831e-05
 Reference value :  2.96181e-05
 Reference value :  2.97001e-05
 Reference value :  2.97501e-05
 Reference value :  2.97502e-05
 Reference value :  2.97502e-05
 Reference value :  2.97503e-05
 Reference value :  2.97504e-05
 Reference value :  2.97510e-05
 Reference value :  2.97519e-05
 Reference value :  2.97531e-05
 Reference value :  2.97538e-05
 Reference value :  2.97544e-05
 Reference value :  2.97551e-05
 Reference value :  2.97557e-05
 Reference value :  2.97567e-05
 Reference value :  2.97595e-05
 Reference value :  2.97660e-05
 Reference value :  2.98179e-05
 Reference value :  2.99926e-05
 Reference value :  3.00000e-05
 Reference value :  3.00001e-05
 Reference value :  3.00001e-05
 Reference value :  3.00002e-05
 Reference value :  3.00006e-05
 Reference value :  3.00015e-05
 Reference value :  3.00024e-05
 Reference value :  3.00035e-05
 Reference value :  3.00047e-05
 Reference value :  3.00065e-05
 Reference value :  3.00084e-05
 Reference value :  3.00103e-05
 Reference value :  3.00126e-05
 Reference value :  3.00187e-05
 Reference value :  3.00588e-05
 Reference value :  3.02501e-05
 Reference value :  3.02501e-05
 Reference value :  3.02502e-05
 Reference value :  3.02503e-05
 Reference value :  3.02505e-05
 Reference value :  3.02515e-05
 Reference value :  3.02524e-05
 Reference value :  3.02538e-05
 Reference value :  3.02550e-05
 Reference value :  3.02564e-05
 Reference value :  3.02590e-05
 Reference value :  3.02619e-05
 Reference value :  3.02729e-05
 Reference value :  3.03510e-05
 Reference value :  3.05013e-05
 Reference value :  3.05052e-05
 Reference value :  3.05066e-05
 Reference value :  3.05091e-05
 Reference value :  3.05113e-05
 Reference value :  3.05136e-05
 Reference value :  3.05154e-05
 Reference value :  3.05163e-05
 Reference value :  3.05194e-05
 Reference value :  3.05227e-05
 Reference value :  3.05359e-05
 Reference value :  3.05465e-05
 Reference value :  3.05500e-05
 Reference value :  3.05571e-05
 Reference value :  3.05767e-05
 Reference value :  3.06372e-05
 Reference value :  3.06654e-05
 Reference value :  3.06821e-05
 Reference value :  3.07114e-05
 Reference value :  3.07501e-05
 Reference value :  3.07502e-05
 Reference value :  3.07502e-05
 Reference value :  3.07502e-05
 Reference value :  3.07503e-05
 Reference value :  3.07504e-05
 Reference value :  3.07507e-05
 Reference value :  3.07509e-05
 Reference value :  3.07515e-05
 Reference value :  3.07524e-05
 Reference value :  3.07537e-05
 Reference value :  3.07542e-05
 Reference value :  3.07554e-05
 Reference value :  3.07561e-05
 Reference value :  3.07584e-05
 Reference value :  3.07681e-05
 Reference value :  3.08219e-05
 Reference value :  3.09588e-05
 Reference value :  3.10000e-05
 Reference value :  3.10001e-05
 Reference value :  3.10002e-05
 Reference value :  3.10003e-05
 Reference value :  3.10009e-05
 Reference value :  3.10020e-05
 Reference value :  3.10024e-05
 Reference value :  3.10035e-05
 Reference value :  3.10047e-05
 Reference value :  3.10065e-05
 Reference value :  3.10084e-05
 Reference value :  3.10093e-05
 Reference value :  3.10114e-05
 Reference value :  3.10151e-05
 Reference value :  3.10376e-05
 Reference value :  3.11847e-05
 Reference value :  3.12501e-05
 Reference value :  3.12502e-05
 Reference value :  3.12503e-05
 Reference value :  3.12504e-05
 Reference value :  3.12507e-05
 Reference value :  3.12515e-05
 Reference value :  3.12524e-05
 Reference value :  3.12538e-05
 Reference value :  3.12550e-05
 Reference value :  3.12564e-05
 Reference value :  3.12590e-05
 Reference value :  3.12619e-05
 Reference value :  3.12729e-05
 Reference value :  3.13163e-05
 Reference value :  3.14204e-05
 Reference value :  3.15000e-05
 Reference value :  3.15001e-05
 Reference value :  3.15002e-05
 Reference value :  3.15003e-05
 Reference value :  3.15009e-05
 Reference value :  3.15015e-05
 Reference value :  3.15024e-05
 Reference value :  3.15035e-05
 Reference value :  3.15046e-05
 Reference value :  3.15058e-05
 Reference value :  3.15073e-05
 Reference value :  3.15097e-05
 Reference value :  3.15107e-05
 Reference value :  3.15129e-05
 Reference value :  3.15138e-05
 Reference value :  3.15155e-05
 Reference value :  3.15175e-05
 Reference value :  3.15200e-05
 Reference value :  3.15269e-05
 Reference value :  3.15347e-05
 Reference value :  3.15401e-05
 Reference value :  3.15474e-05
 Reference value :  3.15798e-05
 Reference value :  3.17501e-05
 Reference value :  3.17502e-05
 Reference value :  3.17502e-05
 Reference value :  3.17503e-05
 Reference value :  3.17505e-05
 Reference value :  3.17514e-05
 Reference value :  3.17524e-05
 Reference value :  3.17538e-05
 Reference value :  3.17543e-05
 Reference value :  3.17555e-05
 Reference value :  3.17571e-05
 Reference value :  3.17642e-05
 Reference value :  3.18404e-05
 Reference value :  3.20000e-05
 Reference value :  3.20001e-05
 Reference value :  3.20002e-05
 Reference value :  3.20006e-05
 Reference value :  3.20020e-05
 Reference value :  3.20030e-05
 Reference value :  3.20041e-05
 Reference value :  3.20057e-05
 Reference value :  3.20064e-05
 Reference value :  3.20083e-05
 Reference value :  3.20112e-05
 Reference value :  3.20148e-05
 Reference value :  3.20269e-05
 Reference value :  3.22501e-05
 Reference value :  3.22502e-05
 Reference value :  3.22503e-05
 Reference value :  3.22505e-05
 Reference value :  3.22515e-05
 Reference value :  3.22524e-05
 Reference value :  3.22538e-05
 Reference value :  3.22544e-05
 Reference value :  3.22557e-05
 Reference value :  3.22564e-05
 Reference value :  3.22612e-05
 Reference value :  3.22830e-05
 Reference value :  3.24401e-05
 Reference value :  3.25000e-05
 Reference value :  3.25001e-05
 Reference value :  3.25002e-05
 Reference value :  3.25009e-05
 Reference value :  3.25020e-05
 Reference value :  3.25030e-05
 Reference value :  3.25041e-05
 Reference value :  3.25047e-05
 Reference value :  3.25059e-05
 Reference value :  3.25087e-05
 Reference value :  3.25105e-05
 Reference value :  3.25119e-05
 Reference value :  3.25144e-05
 Reference value :  3.25163e-05
 Reference value :  3.25221e-05
 Reference value :  3.25327e-05
 Reference value :  3.25409e-05
 Reference value :  3.25564e-05
 Reference value :  3.25916e-05
 Reference value :  3.27501e-05
 Reference value :  3.27501e-05
 Reference value :  3.27502e-05
 Reference value :  3.27503e-05
 Reference value :  3.27510e-05
 Reference value :  3.27514e-05
 Reference value :  3.27519e-05
 Reference value :  3.27524e-05
 Reference value :  3.27538e-05
 Reference value :  3.27543e-05
 Reference value :  3.27549e-05
 Reference value :  3.27564e-05
 Reference value :  3.27589e-05
 Reference value :  3.27644e-05
 Reference value :  3.27822e-05
 Reference value :  3.28023e-05
 Reference value :  3.29226e-05
 Reference value :  3.30000e-05
 Reference value :  3.30001e-05
 Reference value :  3.30001e-05
 Reference value :  3.30002e-05
 Reference value :  3.30002e-05
 Reference value :  3.30003e-05
 Reference value :  3.30006e-05
 Reference value :  3.30009e-05
 Reference value :  3.30020e-05
 Reference value :  3.30024e-05
 Reference value :  3.30035e-05
 Reference value :  3.30047e-05
 Reference value :  3.30065e-05
 Reference value :  3.30084e-05
 Reference value :  3.30103e-05
 Reference value :  3.30126e-05
 Reference value :  3.30255e-05
 Reference value :  3.31009e-05
 Reference value :  3.32501e-05
 Reference value :  3.32502e-05
 Reference value :  3.32502e-05
 Reference value :  3.32503e-05
 Reference value :  3.32507e-05
 Reference value :  3.32515e-05
 Reference value :  3.32524e-05
 Reference value :  3.32538e-05
 Reference value :  3.32550e-05
 Reference value :  3.32564e-05
 Reference value :  3.32581e-05
 Reference value :  3.32603e-05
 Reference value :  3.32672e-05
 Reference value :  3.32948e-05
 Reference value :  3.33516e-05
 Reference value :  3.35000e-05
 Reference value :  3.35013e-05
 Reference value :  3.35052e-05
 Reference value :  3.35065e-05
 Reference value :  3.35077e-05
 Reference value :  3.35101e-05
 Reference value :  3.35111e-05
 Reference value :  3.35134e-05
 Reference value :  3.35182e-05
 Reference value :  3.35246e-05
 Reference value :  3.35398e-05
 Reference value :  3.35557e-05
 Reference value :  3.35707e-05
 Reference value :  3.35942e-05
 Reference value :  3.36513e-05
 Reference value :  3.37501e-05
 Reference value :  3.37502e-05
 Reference value :  3.37503e-05
 Reference value :  3.37504e-05
 Reference value :  3.37508e-05
 Reference value :  3.37514e-05
 Reference value :  3.37523e-05
 Reference value :  3.37537e-05
 Reference value :  3.37554e-05
 Reference value :  3.37591e-05
 Reference value :  3.37695e-05
 Reference value :  3.38084e-05
 Reference value :  3.40000e-05
No. of Data Rows : 4906
ngspice-44 done
