
Note: Compatibility modes selected: hs a


Circuit: ** sch_path: /home/samantha/cace/sar-adc-using-sky130-pdk/runs/run_2025-09-08_20-14-45/parameters/sampling_rate/run_1/sampling_rate.sch

option SCALE: Scale is set to 1e-06 for instance and model parameters
option SCALE: Scale is set to 1e-06 for instance and model parameters
option SCALE: Scale is set to 1e-06 for instance and model parameters
option SCALE: Scale is set to 1e-06 for instance and model parameters
Doing analysis at TEMP = 27.000000 and TNOM = 27.000000

Using KLU as Direct Linear Solver
Operating point simulation skipped by 'uic',
  now using transient initial conditions.
 Reference value :  1.00000e-12
 Reference value :  1.02772e-12
 Reference value :  1.08316e-12
 Reference value :  1.19404e-12
 Reference value :  1.33846e-12
 Reference value :  1.62730e-12
 Reference value :  2.20497e-12
 Reference value :  3.04308e-12
 Reference value :  3.94927e-12
 Reference value :  5.16906e-12
 Reference value :  6.91396e-12
 Reference value :  1.00919e-11
 Reference value :  1.37956e-11
 Reference value :  2.05148e-11
 Reference value :  2.75149e-11
 Reference value :  3.64319e-11
 Reference value :  4.75107e-11
 Reference value :  6.41460e-11
 Reference value :  8.42552e-11
 Reference value :  1.00000e-10
 Reference value :  1.01318e-10
 Reference value :  1.03954e-10
 Reference value :  1.09226e-10
 Reference value :  1.19771e-10
 Reference value :  1.40860e-10
 Reference value :  1.83038e-10
 Reference value :  2.67393e-10
 Reference value :  4.18981e-10
 Reference value :  5.89594e-10
 Reference value :  8.62556e-10
 Reference value :  1.24357e-09
 Reference value :  1.76030e-09
 Reference value :  2.56888e-09
 Reference value :  3.30950e-09
 Reference value :  4.37208e-09
 Reference value :  5.22867e-09
 Reference value :  6.15529e-09
 Reference value :  7.50187e-09
 Reference value :  8.91776e-09
 Reference value :  1.05817e-08
 Reference value :  1.16255e-08
 Reference value :  1.25920e-08
 Reference value :  1.35886e-08
 Reference value :  1.47118e-08
 Reference value :  1.68372e-08
 Reference value :  1.96716e-08
 Reference value :  2.31942e-08
 Reference value :  2.68443e-08
 Reference value :  3.03658e-08
 Reference value :  3.41117e-08
 Reference value :  3.79162e-08
 Reference value :  4.21024e-08
 Reference value :  5.04748e-08
 Reference value :  5.99257e-08
 Reference value :  7.79275e-08
 Reference value :  1.10171e-07
 Reference value :  1.74659e-07
 Reference value :  2.43044e-07
 Reference value :  2.50100e-07
 Reference value :  2.50110e-07
 Reference value :  2.50130e-07
 Reference value :  2.50170e-07
 Reference value :  2.50200e-07
 Reference value :  2.50201e-07
 Reference value :  2.50202e-07
 Reference value :  2.50204e-07
 Reference value :  2.50208e-07
 Reference value :  2.50216e-07
 Reference value :  2.50233e-07
 Reference value :  2.50267e-07
 Reference value :  2.50335e-07
 Reference value :  2.50428e-07
 Reference value :  2.50612e-07
 Reference value :  2.50793e-07
 Reference value :  2.51137e-07
 Reference value :  2.51560e-07
 Reference value :  2.52263e-07
 Reference value :  2.52903e-07
 Reference value :  2.53743e-07
 Reference value :  2.54760e-07
 Reference value :  2.55925e-07
 Reference value :  2.56998e-07
 Reference value :  2.58032e-07
 Reference value :  2.59194e-07
 Reference value :  2.60295e-07
 Reference value :  2.62107e-07
 Reference value :  2.64717e-07
 Reference value :  2.67413e-07
 Reference value :  2.72034e-07
 Reference value :  2.78778e-07
 Reference value :  2.92266e-07
 Reference value :  3.19242e-07
 Reference value :  3.70098e-07
 Reference value :  4.19082e-07
 Reference value :  4.65666e-07
 Reference value :  5.00000e-07
 Reference value :  5.00010e-07
 Reference value :  5.00030e-07
 Reference value :  5.00070e-07
 Reference value :  5.00100e-07
 Reference value :  5.00104e-07
 Reference value :  5.00113e-07
 Reference value :  5.00130e-07
 Reference value :  5.00164e-07
 Reference value :  5.00232e-07
 Reference value :  5.00369e-07
 Reference value :  5.00560e-07
 Reference value :  5.00941e-07
 Reference value :  5.01537e-07
 Reference value :  5.02164e-07
 Reference value :  5.02803e-07
 Reference value :  5.03585e-07
 Reference value :  5.04329e-07
 Reference value :  5.05220e-07
 Reference value :  5.06167e-07
 Reference value :  5.07123e-07
 Reference value :  5.08517e-07
 Reference value :  5.09829e-07
 Reference value :  5.12441e-07
 Reference value :  5.15587e-07
 Reference value :  5.17855e-07
 Reference value :  5.20408e-07
 Reference value :  5.22973e-07
 Reference value :  5.25620e-07
 Reference value :  5.28850e-07
 Reference value :  5.33914e-07
 Reference value :  5.40883e-07
 Reference value :  5.50961e-07
 Reference value :  5.71117e-07
 Reference value :  5.99950e-07
 Reference value :  6.53566e-07
 Reference value :  7.50100e-07
 Reference value :  7.50110e-07
 Reference value :  7.50130e-07
 Reference value :  7.50170e-07
 Reference value :  7.50200e-07
 Reference value :  7.50201e-07
 Reference value :  7.50202e-07
 Reference value :  7.50205e-07
 Reference value :  7.50211e-07
 Reference value :  7.50223e-07
 Reference value :  7.50248e-07
 Reference value :  7.50296e-07
 Reference value :  7.50393e-07
 Reference value :  7.50586e-07
 Reference value :  7.50971e-07
 Reference value :  7.51562e-07
 Reference value :  7.52220e-07
 Reference value :  7.52980e-07
 Reference value :  7.53822e-07
 Reference value :  7.54912e-07
 Reference value :  7.55836e-07
 Reference value :  7.56924e-07
 Reference value :  7.57861e-07
 Reference value :  7.58863e-07
 Reference value :  7.59996e-07
 Reference value :  7.61266e-07
 Reference value :  7.62562e-07
 Reference value :  7.64373e-07
 Reference value :  7.66448e-07
 Reference value :  7.69197e-07
 Reference value :  7.72672e-07
 Reference value :  7.77699e-07
 Reference value :  7.87752e-07
 Reference value :  8.02447e-07
 Reference value :  8.30762e-07
 Reference value :  8.87391e-07
 Reference value :  1.00000e-06
 Reference value :  1.00001e-06
 Reference value :  1.00003e-06
 Reference value :  1.00007e-06
 Reference value :  1.00010e-06
 Reference value :  1.00010e-06
 Reference value :  1.00011e-06
 Reference value :  1.00013e-06
 Reference value :  1.00016e-06
 Reference value :  1.00023e-06
 Reference value :  1.00037e-06
 Reference value :  1.00056e-06
 Reference value :  1.00094e-06
 Reference value :  1.00153e-06
 Reference value :  1.00216e-06
 Reference value :  1.00285e-06
 Reference value :  1.00357e-06
 Reference value :  1.00432e-06
 Reference value :  1.00516e-06
 Reference value :  1.00610e-06
 Reference value :  1.00694e-06
 Reference value :  1.00780e-06
 Reference value :  1.00864e-06
 Reference value :  1.00951e-06
 Reference value :  1.01041e-06
 Reference value :  1.01175e-06
 Reference value :  1.01299e-06
 Reference value :  1.01531e-06
 Reference value :  1.01760e-06
 Reference value :  1.01942e-06
 Reference value :  1.02141e-06
 Reference value :  1.02331e-06
 Reference value :  1.02527e-06
 Reference value :  1.02728e-06
 Reference value :  1.02910e-06
 Reference value :  1.03094e-06
 Reference value :  1.03323e-06
 Reference value :  1.03579e-06
 Reference value :  1.03885e-06
 Reference value :  1.04366e-06
 Reference value :  1.05022e-06
 Reference value :  1.06087e-06
 Reference value :  1.07772e-06
 Reference value :  1.10468e-06
 Reference value :  1.14424e-06
 Reference value :  1.18241e-06
 Reference value :  1.21058e-06
 Reference value :  1.23170e-06
 Reference value :  1.25010e-06
 Reference value :  1.25011e-06
 Reference value :  1.25013e-06
 Reference value :  1.25017e-06
 Reference value :  1.25020e-06
 Reference value :  1.25020e-06
 Reference value :  1.25020e-06
 Reference value :  1.25021e-06
 Reference value :  1.25021e-06
 Reference value :  1.25022e-06
 Reference value :  1.25025e-06
 Reference value :  1.25030e-06
 Reference value :  1.25039e-06
 Reference value :  1.25059e-06
 Reference value :  1.25093e-06
 Reference value :  1.25155e-06
 Reference value :  1.25217e-06
 Reference value :  1.25296e-06
 Reference value :  1.25376e-06
 Reference value :  1.25484e-06
 Reference value :  1.25579e-06
 Reference value :  1.25688e-06
 Reference value :  1.25799e-06
 Reference value :  1.25906e-06
 Reference value :  1.26087e-06
 Reference value :  1.26264e-06
 Reference value :  1.26546e-06
 Reference value :  1.26903e-06
 Reference value :  1.27439e-06
 Reference value :  1.28510e-06
 Reference value :  1.30382e-06
 Reference value :  1.33798e-06
 Reference value :  1.40631e-06
 Reference value :  1.50000e-06
 Reference value :  1.50001e-06
 Reference value :  1.50003e-06
 Reference value :  1.50007e-06
 Reference value :  1.50010e-06
 Reference value :  1.50010e-06
 Reference value :  1.50011e-06
 Reference value :  1.50013e-06
 Reference value :  1.50016e-06
 Reference value :  1.50023e-06
 Reference value :  1.50037e-06
 Reference value :  1.50056e-06
 Reference value :  1.50093e-06
 Reference value :  1.50161e-06
 Reference value :  1.50223e-06
 Reference value :  1.50291e-06
 Reference value :  1.50362e-06
 Reference value :  1.50438e-06
 Reference value :  1.50523e-06
 Reference value :  1.50615e-06
 Reference value :  1.50719e-06
 Reference value :  1.50852e-06
 Reference value :  1.50990e-06
 Reference value :  1.51147e-06
 Reference value :  1.51303e-06
 Reference value :  1.51462e-06
 Reference value :  1.51656e-06
 Reference value :  1.51845e-06
 Reference value :  1.52076e-06
 Reference value :  1.52294e-06
 Reference value :  1.52728e-06
 Reference value :  1.53589e-06
 Reference value :  1.54915e-06
 Reference value :  1.57569e-06
 Reference value :  1.62876e-06
 Reference value :  1.73490e-06
 Reference value :  1.75010e-06
 Reference value :  1.75011e-06
 Reference value :  1.75013e-06
 Reference value :  1.75017e-06
 Reference value :  1.75020e-06
 Reference value :  1.75020e-06
 Reference value :  1.75020e-06
 Reference value :  1.75021e-06
 Reference value :  1.75021e-06
 Reference value :  1.75022e-06
 Reference value :  1.75025e-06
 Reference value :  1.75030e-06
 Reference value :  1.75039e-06
 Reference value :  1.75059e-06
 Reference value :  1.75093e-06
 Reference value :  1.75155e-06
 Reference value :  1.75216e-06
 Reference value :  1.75295e-06
 Reference value :  1.75376e-06
 Reference value :  1.75483e-06
 Reference value :  1.75576e-06
 Reference value :  1.75683e-06
 Reference value :  1.75777e-06
 Reference value :  1.75876e-06
 Reference value :  1.75989e-06
 Reference value :  1.76116e-06
 Reference value :  1.76370e-06
 Reference value :  1.76651e-06
 Reference value :  1.77102e-06
 Reference value :  1.77708e-06
 Reference value :  1.78922e-06
 Reference value :  1.81350e-06
 Reference value :  1.86204e-06
 Reference value :  1.95914e-06
 Reference value :  2.00000e-06
 Reference value :  2.00001e-06
 Reference value :  2.00003e-06
 Reference value :  2.00007e-06
 Reference value :  2.00010e-06
 Reference value :  2.00010e-06
 Reference value :  2.00011e-06
 Reference value :  2.00013e-06
 Reference value :  2.00016e-06
 Reference value :  2.00023e-06
 Reference value :  2.00037e-06
 Reference value :  2.00055e-06
 Reference value :  2.00092e-06
 Reference value :  2.00160e-06
 Reference value :  2.00223e-06
 Reference value :  2.00291e-06
 Reference value :  2.00363e-06
 Reference value :  2.00439e-06
 Reference value :  2.00523e-06
 Reference value :  2.00615e-06
 Reference value :  2.00717e-06
 Reference value :  2.00818e-06
 Reference value :  2.00924e-06
 Reference value :  2.01025e-06
 Reference value :  2.01134e-06
 Reference value :  2.01279e-06
 Reference value :  2.01461e-06
 Reference value :  2.01758e-06
 Reference value :  2.02043e-06
 Reference value :  2.02282e-06
 Reference value :  2.02486e-06
 Reference value :  2.02692e-06
 Reference value :  2.02893e-06
 Reference value :  2.03101e-06
 Reference value :  2.03338e-06
 Reference value :  2.03588e-06
 Reference value :  2.03883e-06
 Reference value :  2.04329e-06
 Reference value :  2.04944e-06
 Reference value :  2.05936e-06
 Reference value :  2.07519e-06
 Reference value :  2.10081e-06
 Reference value :  2.13700e-06
 Reference value :  2.20138e-06
 Reference value :  2.25010e-06
 Reference value :  2.25011e-06
 Reference value :  2.25013e-06
 Reference value :  2.25017e-06
 Reference value :  2.25020e-06
 Reference value :  2.25020e-06
 Reference value :  2.25020e-06
 Reference value :  2.25021e-06
 Reference value :  2.25021e-06
 Reference value :  2.25022e-06
 Reference value :  2.25025e-06
 Reference value :  2.25030e-06
 Reference value :  2.25039e-06
 Reference value :  2.25059e-06
 Reference value :  2.25092e-06
 Reference value :  2.25154e-06
 Reference value :  2.25216e-06
 Reference value :  2.25295e-06
 Reference value :  2.25375e-06
 Reference value :  2.25482e-06
 Reference value :  2.25579e-06
 Reference value :  2.25689e-06
 Reference value :  2.25798e-06
 Reference value :  2.25907e-06
 Reference value :  2.26086e-06
 Reference value :  2.26262e-06
 Reference value :  2.26544e-06
 Reference value :  2.26900e-06
 Reference value :  2.27435e-06
 Reference value :  2.28503e-06
 Reference value :  2.30368e-06
 Reference value :  2.33770e-06
 Reference value :  2.40575e-06
 Reference value :  2.49388e-06
 Reference value :  2.50000e-06
 Reference value :  2.50001e-06
 Reference value :  2.50003e-06
 Reference value :  2.50007e-06
 Reference value :  2.50010e-06
 Reference value :  2.50010e-06
 Reference value :  2.50011e-06
 Reference value :  2.50013e-06
 Reference value :  2.50016e-06
 Reference value :  2.50023e-06
 Reference value :  2.50037e-06
 Reference value :  2.50055e-06
 Reference value :  2.50092e-06
 Reference value :  2.50160e-06
 Reference value :  2.50223e-06
 Reference value :  2.50291e-06
 Reference value :  2.50363e-06
 Reference value :  2.50438e-06
 Reference value :  2.50524e-06
 Reference value :  2.50616e-06
 Reference value :  2.50719e-06
 Reference value :  2.50852e-06
 Reference value :  2.50991e-06
 Reference value :  2.51147e-06
 Reference value :  2.51303e-06
 Reference value :  2.51462e-06
 Reference value :  2.51655e-06
 Reference value :  2.51830e-06
 Reference value :  2.52027e-06
 Reference value :  2.52239e-06
 Reference value :  2.52664e-06
 Reference value :  2.53481e-06
 Reference value :  2.54850e-06
 Reference value :  2.57587e-06
 Reference value :  2.63062e-06
 Reference value :  2.74012e-06
 Reference value :  2.75010e-06
 Reference value :  2.75011e-06
 Reference value :  2.75013e-06
 Reference value :  2.75017e-06
 Reference value :  2.75020e-06
 Reference value :  2.75020e-06
 Reference value :  2.75020e-06
 Reference value :  2.75021e-06
 Reference value :  2.75021e-06
 Reference value :  2.75022e-06
 Reference value :  2.75025e-06
 Reference value :  2.75030e-06
 Reference value :  2.75039e-06
 Reference value :  2.75059e-06
 Reference value :  2.75093e-06
 Reference value :  2.75154e-06
 Reference value :  2.75216e-06
 Reference value :  2.75294e-06
 Reference value :  2.75375e-06
 Reference value :  2.75482e-06
 Reference value :  2.75575e-06
 Reference value :  2.75682e-06
 Reference value :  2.75776e-06
 Reference value :  2.75876e-06
 Reference value :  2.75989e-06
 Reference value :  2.76117e-06
 Reference value :  2.76371e-06
 Reference value :  2.76651e-06
 Reference value :  2.77103e-06
 Reference value :  2.77710e-06
 Reference value :  2.78925e-06
 Reference value :  2.81354e-06
 Reference value :  2.86213e-06
 Reference value :  2.95930e-06
 Reference value :  3.00000e-06
 Reference value :  3.00001e-06
 Reference value :  3.00003e-06
 Reference value :  3.00007e-06
 Reference value :  3.00010e-06
 Reference value :  3.00010e-06
 Reference value :  3.00011e-06
 Reference value :  3.00013e-06
 Reference value :  3.00016e-06
 Reference value :  3.00023e-06
 Reference value :  3.00037e-06
 Reference value :  3.00055e-06
 Reference value :  3.00092e-06
 Reference value :  3.00160e-06
 Reference value :  3.00223e-06
 Reference value :  3.00291e-06
 Reference value :  3.00363e-06
 Reference value :  3.00438e-06
 Reference value :  3.00523e-06
 Reference value :  3.00615e-06
 Reference value :  3.00710e-06
 Reference value :  3.00811e-06
 Reference value :  3.00918e-06
 Reference value :  3.01020e-06
 Reference value :  3.01129e-06
 Reference value :  3.01274e-06
 Reference value :  3.01454e-06
 Reference value :  3.01749e-06
 Reference value :  3.02028e-06
 Reference value :  3.02266e-06
 Reference value :  3.02457e-06
 Reference value :  3.02637e-06
 Reference value :  3.02839e-06
 Reference value :  3.03026e-06
 Reference value :  3.03255e-06
 Reference value :  3.03485e-06
 Reference value :  3.03824e-06
 Reference value :  3.04232e-06
 Reference value :  3.04820e-06
 Reference value :  3.05367e-06
 Reference value :  3.05779e-06
 Reference value :  3.06288e-06
 Reference value :  3.06822e-06
 Reference value :  3.07228e-06
 Reference value :  3.07663e-06
 Reference value :  3.08150e-06
 Reference value :  3.08599e-06
 Reference value :  3.09225e-06
 Reference value :  3.09885e-06
 Reference value :  3.10539e-06
 Reference value :  3.11301e-06
 Reference value :  3.12825e-06
 Reference value :  3.15661e-06
 Reference value :  3.20460e-06
 Reference value :  3.25010e-06
 Reference value :  3.25011e-06
 Reference value :  3.25013e-06
 Reference value :  3.25017e-06
 Reference value :  3.25020e-06
 Reference value :  3.25020e-06
 Reference value :  3.25020e-06
 Reference value :  3.25021e-06
 Reference value :  3.25021e-06
 Reference value :  3.25022e-06
 Reference value :  3.25025e-06
 Reference value :  3.25030e-06
 Reference value :  3.25039e-06
 Reference value :  3.25059e-06
 Reference value :  3.25092e-06
 Reference value :  3.25154e-06
 Reference value :  3.25216e-06
 Reference value :  3.25294e-06
 Reference value :  3.25375e-06
 Reference value :  3.25482e-06
 Reference value :  3.25570e-06
 Reference value :  3.25673e-06
 Reference value :  3.25771e-06
 Reference value :  3.25873e-06
 Reference value :  3.26045e-06
 Reference value :  3.26205e-06
 Reference value :  3.26490e-06
 Reference value :  3.26802e-06
 Reference value :  3.27307e-06
 Reference value :  3.28238e-06
 Reference value :  3.30101e-06
 Reference value :  3.33773e-06
 Reference value :  3.41117e-06
 Reference value :  3.50000e-06
 Reference value :  3.50001e-06
 Reference value :  3.50003e-06
 Reference value :  3.50007e-06
 Reference value :  3.50010e-06
 Reference value :  3.50010e-06
 Reference value :  3.50011e-06
 Reference value :  3.50013e-06
 Reference value :  3.50016e-06
 Reference value :  3.50023e-06
 Reference value :  3.50037e-06
 Reference value :  3.50056e-06
 Reference value :  3.50093e-06
 Reference value :  3.50161e-06
 Reference value :  3.50223e-06
 Reference value :  3.50286e-06
 Reference value :  3.50357e-06
 Reference value :  3.50431e-06
 Reference value :  3.50516e-06
 Reference value :  3.50606e-06
 Reference value :  3.50701e-06
 Reference value :  3.50838e-06
 Reference value :  3.50964e-06
 Reference value :  3.51121e-06
 Reference value :  3.51251e-06
 Reference value :  3.51391e-06
 Reference value :  3.51569e-06
 Reference value :  3.51758e-06
 Reference value :  3.51943e-06
 Reference value :  3.52228e-06
 Reference value :  3.52500e-06
 Reference value :  3.53010e-06
 Reference value :  3.53730e-06
 Reference value :  3.54923e-06
 Reference value :  3.57075e-06
 Reference value :  3.60597e-06
 Reference value :  3.67060e-06
 Reference value :  3.75010e-06
 Reference value :  3.75011e-06
 Reference value :  3.75013e-06
 Reference value :  3.75017e-06
 Reference value :  3.75020e-06
 Reference value :  3.75020e-06
 Reference value :  3.75020e-06
 Reference value :  3.75021e-06
 Reference value :  3.75021e-06
 Reference value :  3.75022e-06
 Reference value :  3.75025e-06
 Reference value :  3.75030e-06
 Reference value :  3.75040e-06
 Reference value :  3.75059e-06
 Reference value :  3.75094e-06
 Reference value :  3.75154e-06
 Reference value :  3.75218e-06
 Reference value :  3.75295e-06
 Reference value :  3.75377e-06
 Reference value :  3.75483e-06
 Reference value :  3.75574e-06
 Reference value :  3.75681e-06
 Reference value :  3.75774e-06
 Reference value :  3.75873e-06
 Reference value :  3.75986e-06
 Reference value :  3.76112e-06
 Reference value :  3.76239e-06
 Reference value :  3.76420e-06
 Reference value :  3.76634e-06
 Reference value :  3.76909e-06
 Reference value :  3.77268e-06
 Reference value :  3.77776e-06
 Reference value :  3.78792e-06
 Reference value :  3.80374e-06
 Reference value :  3.83539e-06
 Reference value :  3.89868e-06
 Reference value :  4.00000e-06
 Reference value :  4.00001e-06
 Reference value :  4.00003e-06
 Reference value :  4.00007e-06
 Reference value :  4.00010e-06
 Reference value :  4.00010e-06
 Reference value :  4.00011e-06
 Reference value :  4.00013e-06
 Reference value :  4.00016e-06
 Reference value :  4.00023e-06
 Reference value :  4.00037e-06
 Reference value :  4.00055e-06
 Reference value :  4.00092e-06
 Reference value :  4.00160e-06
 Reference value :  4.00223e-06
 Reference value :  4.00291e-06
 Reference value :  4.00363e-06
 Reference value :  4.00438e-06
 Reference value :  4.00522e-06
 Reference value :  4.00613e-06
 Reference value :  4.00697e-06
 Reference value :  4.00785e-06
 Reference value :  4.00875e-06
 Reference value :  4.00972e-06
 Reference value :  4.01065e-06
 Reference value :  4.01197e-06
 Reference value :  4.01333e-06
 Reference value :  4.01560e-06
 Reference value :  4.01720e-06
 Reference value :  4.01891e-06
 Reference value :  4.02047e-06
 Reference value :  4.02227e-06
 Reference value :  4.02357e-06
 Reference value :  4.02482e-06
 Reference value :  4.02650e-06
 Reference value :  4.02804e-06
 Reference value :  4.02966e-06
 Reference value :  4.03153e-06
 Reference value :  4.03348e-06
 Reference value :  4.03658e-06
 Reference value :  4.04035e-06
 Reference value :  4.04790e-06
 Reference value :  4.05899e-06
 Reference value :  4.07932e-06
 Reference value :  4.10337e-06
 Reference value :  4.12426e-06
 Reference value :  4.13910e-06
 Reference value :  4.15324e-06
 Reference value :  4.16206e-06
 Reference value :  4.17344e-06
 Reference value :  4.18867e-06
 Reference value :  4.20760e-06
 Reference value :  4.23737e-06
 Reference value :  4.25010e-06
 Reference value :  4.25011e-06
 Reference value :  4.25013e-06
 Reference value :  4.25017e-06
 Reference value :  4.25020e-06
 Reference value :  4.25020e-06
 Reference value :  4.25020e-06
 Reference value :  4.25021e-06
 Reference value :  4.25021e-06
 Reference value :  4.25022e-06
 Reference value :  4.25025e-06
 Reference value :  4.25030e-06
 Reference value :  4.25040e-06
 Reference value :  4.25059e-06
 Reference value :  4.25093e-06
 Reference value :  4.25154e-06
 Reference value :  4.25218e-06
 Reference value :  4.25294e-06
 Reference value :  4.25376e-06
 Reference value :  4.25483e-06
 Reference value :  4.25575e-06
 Reference value :  4.25681e-06
 Reference value :  4.25793e-06
 Reference value :  4.25896e-06
 Reference value :  4.26077e-06
 Reference value :  4.26248e-06
 Reference value :  4.26532e-06
 Reference value :  4.26877e-06
 Reference value :  4.27397e-06
 Reference value :  4.28437e-06
 Reference value :  4.30315e-06
 Reference value :  4.33727e-06
 Reference value :  4.40551e-06
 Reference value :  4.50000e-06
 Reference value :  4.50001e-06
 Reference value :  4.50003e-06
 Reference value :  4.50007e-06
 Reference value :  4.50010e-06
 Reference value :  4.50010e-06
 Reference value :  4.50011e-06
 Reference value :  4.50013e-06
 Reference value :  4.50016e-06
 Reference value :  4.50023e-06
 Reference value :  4.50037e-06
 Reference value :  4.50056e-06
 Reference value :  4.50092e-06
 Reference value :  4.50161e-06
 Reference value :  4.50223e-06
 Reference value :  4.50286e-06
 Reference value :  4.50357e-06
 Reference value :  4.50431e-06
 Reference value :  4.50516e-06
 Reference value :  4.50606e-06
 Reference value :  4.50702e-06
 Reference value :  4.50839e-06
 Reference value :  4.50965e-06
 Reference value :  4.51116e-06
 Reference value :  4.51249e-06
 Reference value :  4.51390e-06
 Reference value :  4.51532e-06
 Reference value :  4.51699e-06
 Reference value :  4.51876e-06
 Reference value :  4.52062e-06
 Reference value :  4.52434e-06
 Reference value :  4.53178e-06
 Reference value :  4.54479e-06
 Reference value :  4.57081e-06
 Reference value :  4.62284e-06
 Reference value :  4.72692e-06
 Reference value :  4.75010e-06
 Reference value :  4.75011e-06
 Reference value :  4.75013e-06
 Reference value :  4.75017e-06
 Reference value :  4.75020e-06
 Reference value :  4.75020e-06
 Reference value :  4.75020e-06
 Reference value :  4.75021e-06
 Reference value :  4.75021e-06
 Reference value :  4.75022e-06
 Reference value :  4.75025e-06
 Reference value :  4.75030e-06
 Reference value :  4.75039e-06
 Reference value :  4.75059e-06
 Reference value :  4.75092e-06
 Reference value :  4.75154e-06
 Reference value :  4.75216e-06
 Reference value :  4.75294e-06
 Reference value :  4.75375e-06
 Reference value :  4.75481e-06
 Reference value :  4.75574e-06
 Reference value :  4.75682e-06
 Reference value :  4.75777e-06
 Reference value :  4.75877e-06
 Reference value :  4.75990e-06
 Reference value :  4.76118e-06
 Reference value :  4.76253e-06
 Reference value :  4.76427e-06
 Reference value :  4.76668e-06
 Reference value :  4.76944e-06
 Reference value :  4.77329e-06
 Reference value :  4.77860e-06
 Reference value :  4.78923e-06
 Reference value :  4.81048e-06
 Reference value :  4.85299e-06
 Reference value :  4.93800e-06
 Reference value :  5.00000e-06
 Reference value :  5.00001e-06
 Reference value :  5.00003e-06
 Reference value :  5.00007e-06
 Reference value :  5.00010e-06
 Reference value :  5.00010e-06
 Reference value :  5.00011e-06
 Reference value :  5.00013e-06
 Reference value :  5.00016e-06
 Reference value :  5.00023e-06
 Reference value :  5.00037e-06
 Reference value :  5.00055e-06
 Reference value :  5.00092e-06
 Reference value :  5.00160e-06
 Reference value :  5.00223e-06
 Reference value :  5.00291e-06
 Reference value :  5.00363e-06
 Reference value :  5.00440e-06
 Reference value :  5.00524e-06
 Reference value :  5.00615e-06
 Reference value :  5.00702e-06
 Reference value :  5.00791e-06
 Reference value :  5.00885e-06
 Reference value :  5.00984e-06
 Reference value :  5.01084e-06
 Reference value :  5.01222e-06
 Reference value :  5.01390e-06
 Reference value :  5.01541e-06
 Reference value :  5.01707e-06
 Reference value :  5.01876e-06
 Reference value :  5.02055e-06
 Reference value :  5.02231e-06
 Reference value :  5.02370e-06
 Reference value :  5.02503e-06
 Reference value :  5.02672e-06
 Reference value :  5.02835e-06
 Reference value :  5.02989e-06
 Reference value :  5.03195e-06
 Reference value :  5.03396e-06
 Reference value :  5.03687e-06
 Reference value :  5.04067e-06
 Reference value :  5.04498e-06
 Reference value :  5.05002e-06
 Reference value :  5.05435e-06
 Reference value :  5.05735e-06
 Reference value :  5.06042e-06
 Reference value :  5.06352e-06
 Reference value :  5.06713e-06
 Reference value :  5.07251e-06
 Reference value :  5.07878e-06
 Reference value :  5.08817e-06
 Reference value :  5.10087e-06
 Reference value :  5.11989e-06
 Reference value :  5.14748e-06
 Reference value :  5.18824e-06
 Reference value :  5.24902e-06
 Reference value :  5.25010e-06
 Reference value :  5.25011e-06
 Reference value :  5.25013e-06
 Reference value :  5.25017e-06
 Reference value :  5.25020e-06
 Reference value :  5.25020e-06
 Reference value :  5.25020e-06
 Reference value :  5.25021e-06
 Reference value :  5.25021e-06
 Reference value :  5.25022e-06
 Reference value :  5.25025e-06
 Reference value :  5.25030e-06
 Reference value :  5.25039e-06
 Reference value :  5.25059e-06
 Reference value :  5.25093e-06
 Reference value :  5.25154e-06
 Reference value :  5.25216e-06
 Reference value :  5.25294e-06
 Reference value :  5.25375e-06
 Reference value :  5.25481e-06
 Reference value :  5.25578e-06
 Reference value :  5.25688e-06
 Reference value :  5.25797e-06
 Reference value :  5.25906e-06
 Reference value :  5.26083e-06
 Reference value :  5.26260e-06
 Reference value :  5.26541e-06
 Reference value :  5.26897e-06
 Reference value :  5.27428e-06
 Reference value :  5.28489e-06
 Reference value :  5.30336e-06
 Reference value :  5.33696e-06
 Reference value :  5.40417e-06
 Reference value :  5.50000e-06
 Reference value :  5.50001e-06
 Reference value :  5.50003e-06
 Reference value :  5.50007e-06
 Reference value :  5.50010e-06
 Reference value :  5.50010e-06
 Reference value :  5.50011e-06
 Reference value :  5.50013e-06
 Reference value :  5.50016e-06
 Reference value :  5.50023e-06
 Reference value :  5.50037e-06
 Reference value :  5.50056e-06
 Reference value :  5.50093e-06
 Reference value :  5.50161e-06
 Reference value :  5.50223e-06
 Reference value :  5.50291e-06
 Reference value :  5.50363e-06
 Reference value :  5.50438e-06
 Reference value :  5.50523e-06
 Reference value :  5.50615e-06
 Reference value :  5.50718e-06
 Reference value :  5.50852e-06
 Reference value :  5.50990e-06
 Reference value :  5.51134e-06
 Reference value :  5.51291e-06
 Reference value :  5.51459e-06
 Reference value :  5.51617e-06
 Reference value :  5.51781e-06
 Reference value :  5.51961e-06
 Reference value :  5.52165e-06
 Reference value :  5.52529e-06
 Reference value :  5.53067e-06
 Reference value :  5.54106e-06
 Reference value :  5.56063e-06
 Reference value :  5.59755e-06
 Reference value :  5.67138e-06
 Reference value :  5.75010e-06
 Reference value :  5.75011e-06
 Reference value :  5.75013e-06
 Reference value :  5.75017e-06
 Reference value :  5.75020e-06
 Reference value :  5.75020e-06
 Reference value :  5.75020e-06
 Reference value :  5.75021e-06
 Reference value :  5.75021e-06
 Reference value :  5.75022e-06
 Reference value :  5.75025e-06
 Reference value :  5.75030e-06
 Reference value :  5.75039e-06
 Reference value :  5.75059e-06
 Reference value :  5.75093e-06
 Reference value :  5.75154e-06
 Reference value :  5.75216e-06
 Reference value :  5.75294e-06
 Reference value :  5.75375e-06
 Reference value :  5.75481e-06
 Reference value :  5.75575e-06
 Reference value :  5.75683e-06
 Reference value :  5.75778e-06
 Reference value :  5.75878e-06
 Reference value :  5.75992e-06
 Reference value :  5.76120e-06
 Reference value :  5.76375e-06
 Reference value :  5.76658e-06
 Reference value :  5.77112e-06
 Reference value :  5.77730e-06
 Reference value :  5.78966e-06
 Reference value :  5.81437e-06
 Reference value :  5.86381e-06
 Reference value :  5.96267e-06
 Reference value :  6.00000e-06
 Reference value :  6.00001e-06
 Reference value :  6.00003e-06
 Reference value :  6.00007e-06
 Reference value :  6.00010e-06
 Reference value :  6.00010e-06
 Reference value :  6.00011e-06
 Reference value :  6.00013e-06
 Reference value :  6.00016e-06
 Reference value :  6.00023e-06
 Reference value :  6.00037e-06
 Reference value :  6.00055e-06
 Reference value :  6.00092e-06
 Reference value :  6.00160e-06
 Reference value :  6.00223e-06
 Reference value :  6.00291e-06
 Reference value :  6.00363e-06
 Reference value :  6.00439e-06
 Reference value :  6.00524e-06
 Reference value :  6.00615e-06
 Reference value :  6.00710e-06
 Reference value :  6.00813e-06
 Reference value :  6.00897e-06
 Reference value :  6.00997e-06
 Reference value :  6.01099e-06
 Reference value :  6.01228e-06
 Reference value :  6.01424e-06
 Reference value :  6.01725e-06
 Reference value :  6.02029e-06
 Reference value :  6.02269e-06
 Reference value :  6.02473e-06
 Reference value :  6.02668e-06
 Reference value :  6.02869e-06
 Reference value :  6.03068e-06
 Reference value :  6.03291e-06
 Reference value :  6.03520e-06
 Reference value :  6.03859e-06
 Reference value :  6.04298e-06
 Reference value :  6.05008e-06
 Reference value :  6.05696e-06
 Reference value :  6.06552e-06
 Reference value :  6.07118e-06
 Reference value :  6.07703e-06
 Reference value :  6.08406e-06
 Reference value :  6.09089e-06
 Reference value :  6.09752e-06
 Reference value :  6.10573e-06
 Reference value :  6.11747e-06
 Reference value :  6.13337e-06
 Reference value :  6.15588e-06
 Reference value :  6.19204e-06
 Reference value :  6.23501e-06
 Reference value :  6.25010e-06
 Reference value :  6.25011e-06
 Reference value :  6.25013e-06
 Reference value :  6.25017e-06
 Reference value :  6.25020e-06
 Reference value :  6.25020e-06
 Reference value :  6.25020e-06
 Reference value :  6.25021e-06
 Reference value :  6.25021e-06
 Reference value :  6.25022e-06
 Reference value :  6.25025e-06
 Reference value :  6.25030e-06
 Reference value :  6.25039e-06
 Reference value :  6.25059e-06
 Reference value :  6.25092e-06
 Reference value :  6.25154e-06
 Reference value :  6.25216e-06
 Reference value :  6.25294e-06
 Reference value :  6.25375e-06
 Reference value :  6.25481e-06
 Reference value :  6.25570e-06
 Reference value :  6.25673e-06
 Reference value :  6.25772e-06
 Reference value :  6.25874e-06
 Reference value :  6.26046e-06
 Reference value :  6.26207e-06
 Reference value :  6.26492e-06
 Reference value :  6.26805e-06
 Reference value :  6.27311e-06
 Reference value :  6.28255e-06
 Reference value :  6.30145e-06
 Reference value :  6.33910e-06
 Reference value :  6.41441e-06
 Reference value :  6.50000e-06
 Reference value :  6.50001e-06
 Reference value :  6.50003e-06
 Reference value :  6.50007e-06
 Reference value :  6.50010e-06
 Reference value :  6.50010e-06
 Reference value :  6.50011e-06
 Reference value :  6.50013e-06
 Reference value :  6.50016e-06
 Reference value :  6.50023e-06
 Reference value :  6.50037e-06
 Reference value :  6.50056e-06
 Reference value :  6.50093e-06
 Reference value :  6.50161e-06
 Reference value :  6.50223e-06
 Reference value :  6.50286e-06
 Reference value :  6.50357e-06
 Reference value :  6.50431e-06
 Reference value :  6.50516e-06
 Reference value :  6.50606e-06
 Reference value :  6.50701e-06
 Reference value :  6.50838e-06
 Reference value :  6.50965e-06
 Reference value :  6.51122e-06
 Reference value :  6.51252e-06
 Reference value :  6.51392e-06
 Reference value :  6.51526e-06
 Reference value :  6.51687e-06
 Reference value :  6.51854e-06
 Reference value :  6.52034e-06
 Reference value :  6.52394e-06
 Reference value :  6.53113e-06
 Reference value :  6.54428e-06
 Reference value :  6.57056e-06
 Reference value :  6.62314e-06
 Reference value :  6.72829e-06
 Reference value :  6.75010e-06
 Reference value :  6.75011e-06
 Reference value :  6.75013e-06
 Reference value :  6.75017e-06
 Reference value :  6.75020e-06
 Reference value :  6.75020e-06
 Reference value :  6.75020e-06
 Reference value :  6.75021e-06
 Reference value :  6.75021e-06
 Reference value :  6.75022e-06
 Reference value :  6.75025e-06
 Reference value :  6.75030e-06
 Reference value :  6.75039e-06
 Reference value :  6.75059e-06
 Reference value :  6.75093e-06
 Reference value :  6.75154e-06
 Reference value :  6.75216e-06
 Reference value :  6.75294e-06
 Reference value :  6.75375e-06
 Reference value :  6.75481e-06
 Reference value :  6.75574e-06
 Reference value :  6.75682e-06
 Reference value :  6.75776e-06
 Reference value :  6.75876e-06
 Reference value :  6.75989e-06
 Reference value :  6.76117e-06
 Reference value :  6.76248e-06
 Reference value :  6.76425e-06
 Reference value :  6.76656e-06
 Reference value :  6.76932e-06
 Reference value :  6.77306e-06
 Reference value :  6.77830e-06
 Reference value :  6.78876e-06
 Reference value :  6.80831e-06
 Reference value :  6.84740e-06
 Reference value :  6.92557e-06
 Reference value :  7.00000e-06
 Reference value :  7.00001e-06
 Reference value :  7.00003e-06
 Reference value :  7.00007e-06
 Reference value :  7.00010e-06
 Reference value :  7.00010e-06
 Reference value :  7.00011e-06
 Reference value :  7.00013e-06
 Reference value :  7.00016e-06
 Reference value :  7.00023e-06
 Reference value :  7.00037e-06
 Reference value :  7.00055e-06
 Reference value :  7.00092e-06
 Reference value :  7.00160e-06
 Reference value :  7.00223e-06
 Reference value :  7.00291e-06
 Reference value :  7.00363e-06
 Reference value :  7.00438e-06
 Reference value :  7.00522e-06
 Reference value :  7.00613e-06
 Reference value :  7.00697e-06
 Reference value :  7.00786e-06
 Reference value :  7.00876e-06
 Reference value :  7.00973e-06
 Reference value :  7.01072e-06
 Reference value :  7.01207e-06
 Reference value :  7.01371e-06
 Reference value :  7.01601e-06
 Reference value :  7.01763e-06
 Reference value :  7.01941e-06
 Reference value :  7.02099e-06
 Reference value :  7.02281e-06
 Reference value :  7.02436e-06
 Reference value :  7.02600e-06
 Reference value :  7.02756e-06
 Reference value :  7.02898e-06
 Reference value :  7.03052e-06
 Reference value :  7.03227e-06
 Reference value :  7.03464e-06
 Reference value :  7.03717e-06
 Reference value :  7.04143e-06
 Reference value :  7.04708e-06
 Reference value :  7.05335e-06
 Reference value :  7.06081e-06
 Reference value :  7.07359e-06
 Reference value :  7.09776e-06
 Reference value :  7.13304e-06
 Reference value :  7.20236e-06
 Reference value :  7.25010e-06
 Reference value :  7.25011e-06
 Reference value :  7.25013e-06
 Reference value :  7.25017e-06
 Reference value :  7.25020e-06
 Reference value :  7.25020e-06
 Reference value :  7.25020e-06
 Reference value :  7.25021e-06
 Reference value :  7.25021e-06
 Reference value :  7.25022e-06
 Reference value :  7.25025e-06
 Reference value :  7.25030e-06
 Reference value :  7.25039e-06
 Reference value :  7.25059e-06
 Reference value :  7.25093e-06
 Reference value :  7.25154e-06
 Reference value :  7.25217e-06
 Reference value :  7.25294e-06
 Reference value :  7.25375e-06
 Reference value :  7.25482e-06
 Reference value :  7.25571e-06
 Reference value :  7.25675e-06
 Reference value :  7.25775e-06
 Reference value :  7.25879e-06
 Reference value :  7.26051e-06
 Reference value :  7.26215e-06
 Reference value :  7.26499e-06
 Reference value :  7.26819e-06
 Reference value :  7.27324e-06
 Reference value :  7.28325e-06
 Reference value :  7.30239e-06
 Reference value :  7.33989e-06
 Reference value :  7.41490e-06
 Reference value :  7.50000e-06
 Reference value :  7.50001e-06
 Reference value :  7.50003e-06
 Reference value :  7.50007e-06
 Reference value :  7.50010e-06
 Reference value :  7.50010e-06
 Reference value :  7.50011e-06
 Reference value :  7.50013e-06
 Reference value :  7.50016e-06
 Reference value :  7.50023e-06
 Reference value :  7.50037e-06
 Reference value :  7.50056e-06
 Reference value :  7.50093e-06
 Reference value :  7.50152e-06
 Reference value :  7.50214e-06
 Reference value :  7.50278e-06
 Reference value :  7.50356e-06
 Reference value :  7.50429e-06
 Reference value :  7.50514e-06
 Reference value :  7.50605e-06
 Reference value :  7.50709e-06
 Reference value :  7.50845e-06
 Reference value :  7.50981e-06
 Reference value :  7.51142e-06
 Reference value :  7.51279e-06
 Reference value :  7.51425e-06
 Reference value :  7.51568e-06
 Reference value :  7.51737e-06
 Reference value :  7.51916e-06
 Reference value :  7.52103e-06
 Reference value :  7.52478e-06
 Reference value :  7.53226e-06
 Reference value :  7.54515e-06
 Reference value :  7.57092e-06
 Reference value :  7.62246e-06
 Reference value :  7.72554e-06
 Reference value :  7.75010e-06
 Reference value :  7.75011e-06
 Reference value :  7.75013e-06
 Reference value :  7.75017e-06
 Reference value :  7.75020e-06
 Reference value :  7.75020e-06
 Reference value :  7.75020e-06
 Reference value :  7.75021e-06
 Reference value :  7.75021e-06
 Reference value :  7.75022e-06
 Reference value :  7.75025e-06
 Reference value :  7.75030e-06
 Reference value :  7.75039e-06
 Reference value :  7.75059e-06
 Reference value :  7.75093e-06
 Reference value :  7.75154e-06
 Reference value :  7.75217e-06
 Reference value :  7.75294e-06
 Reference value :  7.75375e-06
 Reference value :  7.75482e-06
 Reference value :  7.75571e-06
 Reference value :  7.75676e-06
 Reference value :  7.75767e-06
 Reference value :  7.75865e-06
 Reference value :  7.75977e-06
 Reference value :  7.76102e-06
 Reference value :  7.76230e-06
 Reference value :  7.76411e-06
 Reference value :  7.76620e-06
 Reference value :  7.76894e-06
 Reference value :  7.77245e-06
 Reference value :  7.77746e-06
 Reference value :  7.78746e-06
 Reference value :  7.80278e-06
 Reference value :  7.83341e-06
 Reference value :  7.89468e-06
 Reference value :  8.00000e-06
 Reference value :  8.00001e-06
 Reference value :  8.00003e-06
 Reference value :  8.00007e-06
 Reference value :  8.00010e-06
 Reference value :  8.00010e-06
 Reference value :  8.00011e-06
 Reference value :  8.00013e-06
 Reference value :  8.00016e-06
 Reference value :  8.00023e-06
 Reference value :  8.00037e-06
 Reference value :  8.00055e-06
 Reference value :  8.00092e-06
 Reference value :  8.00151e-06
 Reference value :  8.00214e-06
 Reference value :  8.00283e-06
 Reference value :  8.00356e-06
 Reference value :  8.00432e-06
 Reference value :  8.00515e-06
 Reference value :  8.00606e-06
 Reference value :  8.00699e-06
 Reference value :  8.00784e-06
 Reference value :  8.00873e-06
 Reference value :  8.00970e-06
 Reference value :  8.01068e-06
 Reference value :  8.01209e-06
 Reference value :  8.01357e-06
 Reference value :  8.01575e-06
 Reference value :  8.01725e-06
 Reference value :  8.01894e-06
 Reference value :  8.02086e-06
 Reference value :  8.02297e-06
 Reference value :  8.02534e-06
 Reference value :  8.02783e-06
 Reference value :  8.03121e-06
 Reference value :  8.03476e-06
 Reference value :  8.04076e-06
 Reference value :  8.04645e-06
 Reference value :  8.05453e-06
 Reference value :  8.06183e-06
 Reference value :  8.06910e-06
 Reference value :  8.07677e-06
 Reference value :  8.08440e-06
 Reference value :  8.09312e-06
 Reference value :  8.10336e-06
 Reference value :  8.12385e-06
 Reference value :  8.16069e-06
 Reference value :  8.22374e-06
 Reference value :  8.25010e-06
 Reference value :  8.25011e-06
 Reference value :  8.25013e-06
 Reference value :  8.25017e-06
 Reference value :  8.25020e-06
 Reference value :  8.25020e-06
 Reference value :  8.25020e-06
 Reference value :  8.25021e-06
 Reference value :  8.25021e-06
 Reference value :  8.25022e-06
 Reference value :  8.25025e-06
 Reference value :  8.25030e-06
 Reference value :  8.25039e-06
 Reference value :  8.25059e-06
 Reference value :  8.25097e-06
 Reference value :  8.25154e-06
 Reference value :  8.25221e-06
 Reference value :  8.25295e-06
 Reference value :  8.25379e-06
 Reference value :  8.25485e-06
 Reference value :  8.25616e-06
 Reference value :  8.25753e-06
 Reference value :  8.25911e-06
 Reference value :  8.26083e-06
 Reference value :  8.26340e-06
 Reference value :  8.26637e-06
 Reference value :  8.27042e-06
 Reference value :  8.27625e-06
 Reference value :  8.28792e-06
 Reference value :  8.31125e-06
 Reference value :  8.35752e-06
 Reference value :  8.45005e-06
 Reference value :  8.50000e-06
 Reference value :  8.50001e-06
 Reference value :  8.50003e-06
 Reference value :  8.50007e-06
 Reference value :  8.50010e-06
 Reference value :  8.50010e-06
 Reference value :  8.50011e-06
 Reference value :  8.50013e-06
 Reference value :  8.50016e-06
 Reference value :  8.50023e-06
 Reference value :  8.50037e-06
 Reference value :  8.50064e-06
 Reference value :  8.50111e-06
 Reference value :  8.50187e-06
 Reference value :  8.50271e-06
 Reference value :  8.50338e-06
 Reference value :  8.50424e-06
 Reference value :  8.50514e-06
 Reference value :  8.50606e-06
 Reference value :  8.50708e-06
 Reference value :  8.50859e-06
 Reference value :  8.51017e-06
 Reference value :  8.51269e-06
 Reference value :  8.51434e-06
 Reference value :  8.51623e-06
 Reference value :  8.51914e-06
 Reference value :  8.52188e-06
 Reference value :  8.52525e-06
 Reference value :  8.53198e-06
 Reference value :  8.53282e-06
 Reference value :  8.53448e-06
 Reference value :  8.53627e-06
 Reference value :  8.53857e-06
 Reference value :  8.54114e-06
 Reference value :  8.54323e-06
 Reference value :  8.54546e-06
 Reference value :  8.54748e-06
 Reference value :  8.54941e-06
 Reference value :  8.55139e-06
 Reference value :  8.55293e-06
 Reference value :  8.55464e-06
 Reference value :  8.55621e-06
 Reference value :  8.55821e-06
 Reference value :  8.56009e-06
 Reference value :  8.56218e-06
 Reference value :  8.56426e-06
 Reference value :  8.56592e-06
 Reference value :  8.56761e-06
 Reference value :  8.56946e-06
 Reference value :  8.57315e-06
 Reference value :  8.57734e-06
 Reference value :  8.58168e-06
 Reference value :  8.58783e-06
 Reference value :  8.59337e-06
 Reference value :  8.60332e-06
 Reference value :  8.61369e-06
 Reference value :  8.63030e-06
 Reference value :  8.65603e-06
 Reference value :  8.69421e-06
 Reference value :  8.72888e-06
 Reference value :  8.75010e-06
 Reference value :  8.75011e-06
 Reference value :  8.75013e-06
 Reference value :  8.75017e-06
 Reference value :  8.75020e-06
 Reference value :  8.75020e-06
 Reference value :  8.75020e-06
 Reference value :  8.75021e-06
 Reference value :  8.75021e-06
 Reference value :  8.75022e-06
 Reference value :  8.75025e-06
 Reference value :  8.75030e-06
 Reference value :  8.75039e-06
 Reference value :  8.75059e-06
 Reference value :  8.75098e-06
 Reference value :  8.75155e-06
 Reference value :  8.75223e-06
 Reference value :  8.75299e-06
 Reference value :  8.75380e-06
 Reference value :  8.75492e-06
 Reference value :  8.75586e-06
 Reference value :  8.75694e-06
 Reference value :  8.75799e-06
 Reference value :  8.75908e-06
 Reference value :  8.76080e-06
 Reference value :  8.76265e-06
 Reference value :  8.76536e-06
 Reference value :  8.76901e-06
 Reference value :  8.77422e-06
 Reference value :  8.78465e-06
 Reference value :  8.80210e-06
 Reference value :  8.83339e-06
 Reference value :  8.89459e-06
 Reference value :  8.96520e-06
 Reference value :  9.00000e-06
No. of Data Rows : 1428
ngspice-44 done
