
Note: Compatibility modes selected: hs a


Circuit: ** sch_path: /home/ece/cace/sar-adc-using-sky130-pdk/runs/run_2025-09-13_01-45-11/parameters/dnl/run_2/sar_output_dnl.sch

option SCALE: Scale is set to 1e-06 for instance and model parameters
option SCALE: Scale is set to 1e-06 for instance and model parameters
option SCALE: Scale is set to 1e-06 for instance and model parameters
option SCALE: Scale is set to 1e-06 for instance and model parameters
Doing analysis at TEMP = 27.000000 and TNOM = 27.000000

Using KLU as Direct Linear Solver
Operating point simulation skipped by 'uic',
  now using transient initial conditions.
 Reference value :  1.00000e-12
 Reference value :  1.61277e-12
 Reference value :  1.31561e-11
 Reference value :  1.04639e-10
 Reference value :  2.43812e-10
 Reference value :  9.15946e-10
 Reference value :  2.45681e-09
 Reference value :  6.00884e-09
 Reference value :  7.22593e-09
 Reference value :  8.51353e-09
 Reference value :  9.80878e-09
 Reference value :  1.38606e-08
 Reference value :  2.46060e-08
 Reference value :  3.11466e-08
 Reference value :  4.73135e-08
 Reference value :  1.27336e-07
 Reference value :  2.50110e-07
 Reference value :  2.50200e-07
 Reference value :  2.50255e-07
 Reference value :  2.50542e-07
 Reference value :  2.51695e-07
 Reference value :  2.53256e-07
 Reference value :  2.54259e-07
 Reference value :  2.56195e-07
 Reference value :  2.63995e-07
 Reference value :  2.98027e-07
 Reference value :  5.00010e-07
 Reference value :  5.00100e-07
 Reference value :  5.00220e-07
 Reference value :  5.00827e-07
 Reference value :  5.02011e-07
 Reference value :  5.02907e-07
 Reference value :  5.04757e-07
 Reference value :  5.06612e-07
 Reference value :  5.10138e-07
 Reference value :  5.13053e-07
 Reference value :  5.22852e-07
 Reference value :  5.83993e-07
 Reference value :  7.50110e-07
 Reference value :  7.50208e-07
 Reference value :  7.50448e-07
 Reference value :  7.51397e-07
 Reference value :  7.52994e-07
 Reference value :  7.53976e-07
 Reference value :  7.55035e-07
 Reference value :  7.56554e-07
 Reference value :  7.69353e-07
 Reference value :  8.53125e-07
 Reference value :  1.00003e-06
 Reference value :  1.00012e-06
 Reference value :  1.00034e-06
 Reference value :  1.00119e-06
 Reference value :  1.00201e-06
 Reference value :  1.00289e-06
 Reference value :  1.00450e-06
 Reference value :  1.00554e-06
 Reference value :  1.00845e-06
 Reference value :  1.01119e-06
 Reference value :  1.01324e-06
 Reference value :  1.01525e-06
 Reference value :  1.01916e-06
 Reference value :  1.03638e-06
 Reference value :  1.12241e-06
 Reference value :  1.25011e-06
 Reference value :  1.25020e-06
 Reference value :  1.25032e-06
 Reference value :  1.25098e-06
 Reference value :  1.25186e-06
 Reference value :  1.25300e-06
 Reference value :  1.25399e-06
 Reference value :  1.25609e-06
 Reference value :  1.26591e-06
 Reference value :  1.38488e-06
 Reference value :  1.50003e-06
 Reference value :  1.50011e-06
 Reference value :  1.50022e-06
 Reference value :  1.50083e-06
 Reference value :  1.50158e-06
 Reference value :  1.50289e-06
 Reference value :  1.50399e-06
 Reference value :  1.50552e-06
 Reference value :  1.50689e-06
 Reference value :  1.50864e-06
 Reference value :  1.51250e-06
 Reference value :  1.54794e-06
 Reference value :  1.75011e-06
 Reference value :  1.75020e-06
 Reference value :  1.75032e-06
 Reference value :  1.75098e-06
 Reference value :  1.75186e-06
 Reference value :  1.75345e-06
 Reference value :  1.75449e-06
 Reference value :  1.75580e-06
 Reference value :  1.76367e-06
 Reference value :  1.85890e-06
 Reference value :  2.00001e-06
 Reference value :  2.00010e-06
 Reference value :  2.00016e-06
 Reference value :  2.00034e-06
 Reference value :  2.00083e-06
 Reference value :  2.00158e-06
 Reference value :  2.00289e-06
 Reference value :  2.00450e-06
 Reference value :  2.00631e-06
 Reference value :  2.00996e-06
 Reference value :  2.01223e-06
 Reference value :  2.01429e-06
 Reference value :  2.01626e-06
 Reference value :  2.02077e-06
 Reference value :  2.04984e-06
 Reference value :  2.21547e-06
 Reference value :  2.25013e-06
 Reference value :  2.25021e-06
 Reference value :  2.25032e-06
 Reference value :  2.25098e-06
 Reference value :  2.25186e-06
 Reference value :  2.25299e-06
 Reference value :  2.25399e-06
 Reference value :  2.25525e-06
 Reference value :  2.25891e-06
 Reference value :  2.27254e-06
 Reference value :  2.37401e-06
 Reference value :  2.50001e-06
 Reference value :  2.50007e-06
 Reference value :  2.50012e-06
 Reference value :  2.50022e-06
 Reference value :  2.50052e-06
 Reference value :  2.50119e-06
 Reference value :  2.50158e-06
 Reference value :  2.50242e-06
 Reference value :  2.50290e-06
 Reference value :  2.50399e-06
 Reference value :  2.50552e-06
 Reference value :  2.50616e-06
 Reference value :  2.50771e-06
 Reference value :  2.50956e-06
 Reference value :  2.51554e-06
 Reference value :  2.58398e-06
 Reference value :  2.75011e-06
 Reference value :  2.75020e-06
 Reference value :  2.75026e-06
 Reference value :  2.75069e-06
 Reference value :  2.75140e-06
 Reference value :  2.75229e-06
 Reference value :  2.75345e-06
 Reference value :  2.75448e-06
 Reference value :  2.75580e-06
 Reference value :  2.76030e-06
 Reference value :  2.80780e-06
 Reference value :  3.00000e-06
 Reference value :  3.00007e-06
 Reference value :  3.00012e-06
 Reference value :  3.00034e-06
 Reference value :  3.00083e-06
 Reference value :  3.00158e-06
 Reference value :  3.00242e-06
 Reference value :  3.00341e-06
 Reference value :  3.00450e-06
 Reference value :  3.00554e-06
 Reference value :  3.00846e-06
 Reference value :  3.01120e-06
 Reference value :  3.01323e-06
 Reference value :  3.01525e-06
 Reference value :  3.01738e-06
 Reference value :  3.02076e-06
 Reference value :  3.03628e-06
 Reference value :  3.12401e-06
 Reference value :  3.20545e-06
 Reference value :  3.25011e-06
 Reference value :  3.25021e-06
 Reference value :  3.25045e-06
 Reference value :  3.25140e-06
 Reference value :  3.25299e-06
 Reference value :  3.25398e-06
 Reference value :  3.25524e-06
 Reference value :  3.26164e-06
 Reference value :  3.28688e-06
 Reference value :  3.48879e-06
 Reference value :  3.50007e-06
 Reference value :  3.50016e-06
 Reference value :  3.50052e-06
 Reference value :  3.50119e-06
 Reference value :  3.50201e-06
 Reference value :  3.50290e-06
 Reference value :  3.50399e-06
 Reference value :  3.50552e-06
 Reference value :  3.50616e-06
 Reference value :  3.50771e-06
 Reference value :  3.50956e-06
 Reference value :  3.51553e-06
 Reference value :  3.54771e-06
 Reference value :  3.75010e-06
 Reference value :  3.75017e-06
 Reference value :  3.75022e-06
 Reference value :  3.75045e-06
 Reference value :  3.75098e-06
 Reference value :  3.75186e-06
 Reference value :  3.75299e-06
 Reference value :  3.75344e-06
 Reference value :  3.75448e-06
 Reference value :  3.75580e-06
 Reference value :  3.76029e-06
 Reference value :  3.78249e-06
 Reference value :  3.95852e-06
 Reference value :  4.00003e-06
 Reference value :  4.00010e-06
 Reference value :  4.00016e-06
 Reference value :  4.00034e-06
 Reference value :  4.00083e-06
 Reference value :  4.00158e-06
 Reference value :  4.00242e-06
 Reference value :  4.00341e-06
 Reference value :  4.00450e-06
 Reference value :  4.00554e-06
 Reference value :  4.00847e-06
 Reference value :  4.01120e-06
 Reference value :  4.01223e-06
 Reference value :  4.01525e-06
 Reference value :  4.01913e-06
 Reference value :  4.03357e-06
 Reference value :  4.04745e-06
 Reference value :  4.07019e-06
 Reference value :  4.14621e-06
 Reference value :  4.18417e-06
 Reference value :  4.20934e-06
 Reference value :  4.25013e-06
 Reference value :  4.25026e-06
 Reference value :  4.25098e-06
 Reference value :  4.25229e-06
 Reference value :  4.25345e-06
 Reference value :  4.25524e-06
 Reference value :  4.25889e-06
 Reference value :  4.31560e-06
 Reference value :  4.50003e-06
 Reference value :  4.50016e-06
 Reference value :  4.50083e-06
 Reference value :  4.50201e-06
 Reference value :  4.50290e-06
 Reference value :  4.50474e-06
 Reference value :  4.50616e-06
 Reference value :  4.50771e-06
 Reference value :  4.51249e-06
 Reference value :  4.58341e-06
 Reference value :  4.75017e-06
 Reference value :  4.75045e-06
 Reference value :  4.75140e-06
 Reference value :  4.75299e-06
 Reference value :  4.75397e-06
 Reference value :  4.75579e-06
 Reference value :  4.76989e-06
 Reference value :  5.00001e-06
 Reference value :  5.00012e-06
 Reference value :  5.00052e-06
 Reference value :  5.00158e-06
 Reference value :  5.00289e-06
 Reference value :  5.00396e-06
 Reference value :  5.00500e-06
 Reference value :  5.00709e-06
 Reference value :  5.00997e-06
 Reference value :  5.01223e-06
 Reference value :  5.01524e-06
 Reference value :  5.01912e-06
 Reference value :  5.03352e-06
 Reference value :  5.04060e-06
 Reference value :  5.05427e-06
 Reference value :  5.08486e-06
 Reference value :  5.23127e-06
 Reference value :  5.25017e-06
 Reference value :  5.25026e-06
 Reference value :  5.25069e-06
 Reference value :  5.25140e-06
 Reference value :  5.25299e-06
 Reference value :  5.25394e-06
 Reference value :  5.25593e-06
 Reference value :  5.26483e-06
 Reference value :  5.36721e-06
 Reference value :  5.50003e-06
 Reference value :  5.50012e-06
 Reference value :  5.50034e-06
 Reference value :  5.50119e-06
 Reference value :  5.50195e-06
 Reference value :  5.50282e-06
 Reference value :  5.50464e-06
 Reference value :  5.50597e-06
 Reference value :  5.50749e-06
 Reference value :  5.51028e-06
 Reference value :  5.53191e-06
 Reference value :  5.75010e-06
 Reference value :  5.75017e-06
 Reference value :  5.75026e-06
 Reference value :  5.75069e-06
 Reference value :  5.75140e-06
 Reference value :  5.75299e-06
 Reference value :  5.75397e-06
 Reference value :  5.75502e-06
 Reference value :  5.75750e-06
 Reference value :  5.76104e-06
 Reference value :  5.81961e-06
 Reference value :  6.00003e-06
 Reference value :  6.00011e-06
 Reference value :  6.00022e-06
 Reference value :  6.00083e-06
 Reference value :  6.00158e-06
 Reference value :  6.00290e-06
 Reference value :  6.00390e-06
 Reference value :  6.00534e-06
 Reference value :  6.00758e-06
 Reference value :  6.01016e-06
 Reference value :  6.01189e-06
 Reference value :  6.01349e-06
 Reference value :  6.01628e-06
 Reference value :  6.01877e-06
 Reference value :  6.02259e-06
 Reference value :  6.02739e-06
 Reference value :  6.03200e-06
 Reference value :  6.05192e-06
 Reference value :  6.11837e-06
 Reference value :  6.25010e-06
 Reference value :  6.25017e-06
 Reference value :  6.25022e-06
 Reference value :  6.25045e-06
 Reference value :  6.25098e-06
 Reference value :  6.25186e-06
 Reference value :  6.25299e-06
 Reference value :  6.25398e-06
 Reference value :  6.25523e-06
 Reference value :  6.25887e-06
 Reference value :  6.27230e-06
 Reference value :  6.37219e-06
 Reference value :  6.50001e-06
 Reference value :  6.50010e-06
 Reference value :  6.50016e-06
 Reference value :  6.50034e-06
 Reference value :  6.50083e-06
 Reference value :  6.50158e-06
 Reference value :  6.50290e-06
 Reference value :  6.50399e-06
 Reference value :  6.50552e-06
 Reference value :  6.50689e-06
 Reference value :  6.50865e-06
 Reference value :  6.51247e-06
 Reference value :  6.54667e-06
 Reference value :  6.75011e-06
 Reference value :  6.75020e-06
 Reference value :  6.75032e-06
 Reference value :  6.75098e-06
 Reference value :  6.75186e-06
 Reference value :  6.75299e-06
 Reference value :  6.75397e-06
 Reference value :  6.75502e-06
 Reference value :  6.76026e-06
 Reference value :  6.85693e-06
 Reference value :  7.00007e-06
 Reference value :  7.00022e-06
 Reference value :  7.00119e-06
 Reference value :  7.00242e-06
 Reference value :  7.00396e-06
 Reference value :  7.00554e-06
 Reference value :  7.01120e-06
 Reference value :  7.01428e-06
 Reference value :  7.01737e-06
 Reference value :  7.02679e-06
 Reference value :  7.03248e-06
 Reference value :  7.04073e-06
 Reference value :  7.07405e-06
 Reference value :  7.25011e-06
 Reference value :  7.25022e-06
 Reference value :  7.25098e-06
 Reference value :  7.25299e-06
 Reference value :  7.25455e-06
 Reference value :  7.26148e-06
 Reference value :  7.47975e-06
 Reference value :  7.50010e-06
 Reference value :  7.50034e-06
 Reference value :  7.50154e-06
 Reference value :  7.50282e-06
 Reference value :  7.50536e-06
 Reference value :  7.50749e-06
 Reference value :  7.51359e-06
 Reference value :  7.75010e-06
 Reference value :  7.75022e-06
 Reference value :  7.75098e-06
 Reference value :  7.75229e-06
 Reference value :  7.75344e-06
 Reference value :  7.75501e-06
 Reference value :  7.75749e-06
 Reference value :  7.76363e-06
 Reference value :  7.87840e-06
 Reference value :  8.00003e-06
 Reference value :  8.00012e-06
 Reference value :  8.00034e-06
 Reference value :  8.00119e-06
 Reference value :  8.00201e-06
 Reference value :  8.00290e-06
 Reference value :  8.00389e-06
 Reference value :  8.00484e-06
 Reference value :  8.00663e-06
 Reference value :  8.00819e-06
 Reference value :  8.01094e-06
 Reference value :  8.01440e-06
 Reference value :  8.01850e-06
 Reference value :  8.02474e-06
 Reference value :  8.02964e-06
 Reference value :  8.04442e-06
 Reference value :  8.10230e-06
 Reference value :  8.25011e-06
 Reference value :  8.25021e-06
 Reference value :  8.25045e-06
 Reference value :  8.25139e-06
 Reference value :  8.25298e-06
 Reference value :  8.25535e-06
 Reference value :  8.25919e-06
 Reference value :  8.29147e-06
 Reference value :  8.50000e-06
 Reference value :  8.50000e-06
 Reference value :  8.50000e-06
 Reference value :  8.50008e-06
 Reference value :  8.50018e-06
 Reference value :  8.50115e-06
 Reference value :  8.50243e-06
 Reference value :  8.50348e-06
 Reference value :  8.50446e-06
 Reference value :  8.50617e-06
 Reference value :  8.52239e-06
 Reference value :  8.52626e-06
 Reference value :  8.53174e-06
 Reference value :  8.53556e-06
 Reference value :  8.53880e-06
 Reference value :  8.54998e-06
 Reference value :  8.57247e-06
 Reference value :  8.65518e-06
 Reference value :  8.75013e-06
 Reference value :  8.75022e-06
 Reference value :  8.75069e-06
 Reference value :  8.75139e-06
 Reference value :  8.75297e-06
 Reference value :  8.75396e-06
 Reference value :  8.75515e-06
 Reference value :  8.76138e-06
 Reference value :  8.81115e-06
 Reference value :  9.00001e-06
 Reference value :  9.00010e-06
 Reference value :  9.00016e-06
 Reference value :  9.00052e-06
 Reference value :  9.00119e-06
 Reference value :  9.00201e-06
 Reference value :  9.00289e-06
 Reference value :  9.00397e-06
 Reference value :  9.00655e-06
 Reference value :  9.00902e-06
 Reference value :  9.01151e-06
 Reference value :  9.01412e-06
 Reference value :  9.02157e-06
 Reference value :  9.08052e-06
 Reference value :  9.25011e-06
 Reference value :  9.25020e-06
 Reference value :  9.25032e-06
 Reference value :  9.25098e-06
 Reference value :  9.25186e-06
 Reference value :  9.25298e-06
 Reference value :  9.25396e-06
 Reference value :  9.25501e-06
 Reference value :  9.25660e-06
 Reference value :  9.26972e-06
 Reference value :  9.45564e-06
 Reference value :  9.50007e-06
 Reference value :  9.50012e-06
 Reference value :  9.50034e-06
 Reference value :  9.50119e-06
 Reference value :  9.50201e-06
 Reference value :  9.50289e-06
 Reference value :  9.50396e-06
 Reference value :  9.50500e-06
 Reference value :  9.50709e-06
 Reference value :  9.50996e-06
 Reference value :  9.51119e-06
 Reference value :  9.51323e-06
 Reference value :  9.51525e-06
 Reference value :  9.51912e-06
 Reference value :  9.53610e-06
 Reference value :  9.61811e-06
 Reference value :  9.75013e-06
 Reference value :  9.75022e-06
 Reference value :  9.75069e-06
 Reference value :  9.75140e-06
 Reference value :  9.75299e-06
 Reference value :  9.75398e-06
 Reference value :  9.75523e-06
 Reference value :  9.75888e-06
 Reference value :  9.77234e-06
 Reference value :  9.87250e-06
 Reference value :  1.00000e-05
 Reference value :  1.00001e-05
 Reference value :  1.00001e-05
 Reference value :  1.00002e-05
 Reference value :  1.00003e-05
 Reference value :  1.00008e-05
 Reference value :  1.00016e-05
 Reference value :  1.00024e-05
 Reference value :  1.00029e-05
 Reference value :  1.00040e-05
 Reference value :  1.00055e-05
 Reference value :  1.00062e-05
 Reference value :  1.00077e-05
 Reference value :  1.00096e-05
 Reference value :  1.00155e-05
 Reference value :  1.00818e-05
 Reference value :  1.02501e-05
 Reference value :  1.02502e-05
 Reference value :  1.02503e-05
 Reference value :  1.02510e-05
 Reference value :  1.02519e-05
 Reference value :  1.02530e-05
 Reference value :  1.02534e-05
 Reference value :  1.02545e-05
 Reference value :  1.02558e-05
 Reference value :  1.02603e-05
 Reference value :  1.02823e-05
 Reference value :  1.04573e-05
 Reference value :  1.05000e-05
 Reference value :  1.05001e-05
 Reference value :  1.05003e-05
 Reference value :  1.05008e-05
 Reference value :  1.05016e-05
 Reference value :  1.05029e-05
 Reference value :  1.05040e-05
 Reference value :  1.05050e-05
 Reference value :  1.05071e-05
 Reference value :  1.05112e-05
 Reference value :  1.05132e-05
 Reference value :  1.05152e-05
 Reference value :  1.05191e-05
 Reference value :  1.05287e-05
 Reference value :  1.06177e-05
 Reference value :  1.07501e-05
 Reference value :  1.07502e-05
 Reference value :  1.07502e-05
 Reference value :  1.07507e-05
 Reference value :  1.07514e-05
 Reference value :  1.07530e-05
 Reference value :  1.07540e-05
 Reference value :  1.07552e-05
 Reference value :  1.07574e-05
 Reference value :  1.07652e-05
 Reference value :  1.08153e-05
 Reference value :  1.10000e-05
 Reference value :  1.10000e-05
 Reference value :  1.10001e-05
 Reference value :  1.10002e-05
 Reference value :  1.10003e-05
 Reference value :  1.10008e-05
 Reference value :  1.10016e-05
 Reference value :  1.10029e-05
 Reference value :  1.10040e-05
 Reference value :  1.10055e-05
 Reference value :  1.10062e-05
 Reference value :  1.10077e-05
 Reference value :  1.10096e-05
 Reference value :  1.10205e-05
 Reference value :  1.10818e-05
 Reference value :  1.12501e-05
 Reference value :  1.12502e-05
 Reference value :  1.12503e-05
 Reference value :  1.12504e-05
 Reference value :  1.12510e-05
 Reference value :  1.12514e-05
 Reference value :  1.12523e-05
 Reference value :  1.12530e-05
 Reference value :  1.12534e-05
 Reference value :  1.12545e-05
 Reference value :  1.12558e-05
 Reference value :  1.12603e-05
 Reference value :  1.12824e-05
 Reference value :  1.14574e-05
 Reference value :  1.15000e-05
 Reference value :  1.15001e-05
 Reference value :  1.15002e-05
 Reference value :  1.15008e-05
 Reference value :  1.15016e-05
 Reference value :  1.15029e-05
 Reference value :  1.15040e-05
 Reference value :  1.15050e-05
 Reference value :  1.15071e-05
 Reference value :  1.15100e-05
 Reference value :  1.15112e-05
 Reference value :  1.15122e-05
 Reference value :  1.15143e-05
 Reference value :  1.15152e-05
 Reference value :  1.15174e-05
 Reference value :  1.15207e-05
 Reference value :  1.15361e-05
 Reference value :  1.15999e-05
 Reference value :  1.16761e-05
 Reference value :  1.17501e-05
 Reference value :  1.17502e-05
 Reference value :  1.17504e-05
 Reference value :  1.17514e-05
 Reference value :  1.17530e-05
 Reference value :  1.17540e-05
 Reference value :  1.17552e-05
 Reference value :  1.17589e-05
 Reference value :  1.17867e-05
 Reference value :  1.20000e-05
 Reference value :  1.20001e-05
 Reference value :  1.20001e-05
 Reference value :  1.20003e-05
 Reference value :  1.20008e-05
 Reference value :  1.20016e-05
 Reference value :  1.20024e-05
 Reference value :  1.20029e-05
 Reference value :  1.20040e-05
 Reference value :  1.20062e-05
 Reference value :  1.20077e-05
 Reference value :  1.20109e-05
 Reference value :  1.20205e-05
 Reference value :  1.20817e-05
 Reference value :  1.22501e-05
 Reference value :  1.22502e-05
 Reference value :  1.22503e-05
 Reference value :  1.22504e-05
 Reference value :  1.22510e-05
 Reference value :  1.22519e-05
 Reference value :  1.22530e-05
 Reference value :  1.22534e-05
 Reference value :  1.22545e-05
 Reference value :  1.22558e-05
 Reference value :  1.22636e-05
 Reference value :  1.23574e-05
 Reference value :  1.25000e-05
 Reference value :  1.25001e-05
 Reference value :  1.25002e-05
 Reference value :  1.25008e-05
 Reference value :  1.25016e-05
 Reference value :  1.25029e-05
 Reference value :  1.25040e-05
 Reference value :  1.25050e-05
 Reference value :  1.25071e-05
 Reference value :  1.25100e-05
 Reference value :  1.25122e-05
 Reference value :  1.25132e-05
 Reference value :  1.25152e-05
 Reference value :  1.25174e-05
 Reference value :  1.25239e-05
 Reference value :  1.25334e-05
 Reference value :  1.25429e-05
 Reference value :  1.25585e-05
 Reference value :  1.26070e-05
 Reference value :  1.26690e-05
 Reference value :  1.26911e-05
 Reference value :  1.27310e-05
 Reference value :  1.27502e-05
 Reference value :  1.27502e-05
 Reference value :  1.27507e-05
 Reference value :  1.27514e-05
 Reference value :  1.27530e-05
 Reference value :  1.27540e-05
 Reference value :  1.27552e-05
 Reference value :  1.27589e-05
 Reference value :  1.27866e-05
 Reference value :  1.30000e-05
 Reference value :  1.30001e-05
 Reference value :  1.30001e-05
 Reference value :  1.30003e-05
 Reference value :  1.30012e-05
 Reference value :  1.30020e-05
 Reference value :  1.30029e-05
 Reference value :  1.30040e-05
 Reference value :  1.30055e-05
 Reference value :  1.30062e-05
 Reference value :  1.30077e-05
 Reference value :  1.30095e-05
 Reference value :  1.30125e-05
 Reference value :  1.30292e-05
 Reference value :  1.31482e-05
 Reference value :  1.32501e-05
 Reference value :  1.32502e-05
 Reference value :  1.32502e-05
 Reference value :  1.32503e-05
 Reference value :  1.32507e-05
 Reference value :  1.32514e-05
 Reference value :  1.32523e-05
 Reference value :  1.32534e-05
 Reference value :  1.32545e-05
 Reference value :  1.32558e-05
 Reference value :  1.32603e-05
 Reference value :  1.32823e-05
 Reference value :  1.34572e-05
 Reference value :  1.35000e-05
 Reference value :  1.35001e-05
 Reference value :  1.35002e-05
 Reference value :  1.35003e-05
 Reference value :  1.35008e-05
 Reference value :  1.35016e-05
 Reference value :  1.35029e-05
 Reference value :  1.35040e-05
 Reference value :  1.35050e-05
 Reference value :  1.35071e-05
 Reference value :  1.35100e-05
 Reference value :  1.35112e-05
 Reference value :  1.35122e-05
 Reference value :  1.35143e-05
 Reference value :  1.35152e-05
 Reference value :  1.35174e-05
 Reference value :  1.35240e-05
 Reference value :  1.35338e-05
 Reference value :  1.35374e-05
 Reference value :  1.35452e-05
 Reference value :  1.35549e-05
 Reference value :  1.35733e-05
 Reference value :  1.36279e-05
 Reference value :  1.37501e-05
 Reference value :  1.37502e-05
 Reference value :  1.37502e-05
 Reference value :  1.37504e-05
 Reference value :  1.37510e-05
 Reference value :  1.37514e-05
 Reference value :  1.37523e-05
 Reference value :  1.37534e-05
 Reference value :  1.37546e-05
 Reference value :  1.37559e-05
 Reference value :  1.37615e-05
 Reference value :  1.37857e-05
 Reference value :  1.39798e-05
 Reference value :  1.40000e-05
 Reference value :  1.40001e-05
 Reference value :  1.40003e-05
 Reference value :  1.40008e-05
 Reference value :  1.40015e-05
 Reference value :  1.40023e-05
 Reference value :  1.40028e-05
 Reference value :  1.40039e-05
 Reference value :  1.40054e-05
 Reference value :  1.40060e-05
 Reference value :  1.40075e-05
 Reference value :  1.40092e-05
 Reference value :  1.40114e-05
 Reference value :  1.40221e-05
 Reference value :  1.40792e-05
 Reference value :  1.42501e-05
 Reference value :  1.42502e-05
 Reference value :  1.42503e-05
 Reference value :  1.42510e-05
 Reference value :  1.42519e-05
 Reference value :  1.42530e-05
 Reference value :  1.42540e-05
 Reference value :  1.42550e-05
 Reference value :  1.42566e-05
 Reference value :  1.42584e-05
 Reference value :  1.42610e-05
 Reference value :  1.42748e-05
 Reference value :  1.43794e-05
 Reference value :  1.45000e-05
 Reference value :  1.45001e-05
 Reference value :  1.45002e-05
 Reference value :  1.45003e-05
 Reference value :  1.45008e-05
 Reference value :  1.45016e-05
 Reference value :  1.45024e-05
 Reference value :  1.45029e-05
 Reference value :  1.45039e-05
 Reference value :  1.45048e-05
 Reference value :  1.45059e-05
 Reference value :  1.45076e-05
 Reference value :  1.45093e-05
 Reference value :  1.45102e-05
 Reference value :  1.45119e-05
 Reference value :  1.45136e-05
 Reference value :  1.45153e-05
 Reference value :  1.45174e-05
 Reference value :  1.45190e-05
 Reference value :  1.45237e-05
 Reference value :  1.45254e-05
 Reference value :  1.45294e-05
 Reference value :  1.45478e-05
 Reference value :  1.46060e-05
 Reference value :  1.47501e-05
 Reference value :  1.47501e-05
 Reference value :  1.47502e-05
 Reference value :  1.47504e-05
 Reference value :  1.47514e-05
 Reference value :  1.47530e-05
 Reference value :  1.47540e-05
 Reference value :  1.47560e-05
 Reference value :  1.47652e-05
 Reference value :  1.48724e-05
 Reference value :  1.50000e-05
 Reference value :  1.50001e-05
 Reference value :  1.50002e-05
 Reference value :  1.50003e-05
 Reference value :  1.50008e-05
 Reference value :  1.50016e-05
 Reference value :  1.50024e-05
 Reference value :  1.50029e-05
 Reference value :  1.50040e-05
 Reference value :  1.50055e-05
 Reference value :  1.50062e-05
 Reference value :  1.50077e-05
 Reference value :  1.50096e-05
 Reference value :  1.50155e-05
 Reference value :  1.50468e-05
 Reference value :  1.52501e-05
 Reference value :  1.52502e-05
 Reference value :  1.52502e-05
 Reference value :  1.52504e-05
 Reference value :  1.52514e-05
 Reference value :  1.52523e-05
 Reference value :  1.52534e-05
 Reference value :  1.52545e-05
 Reference value :  1.52558e-05
 Reference value :  1.52603e-05
 Reference value :  1.52821e-05
 Reference value :  1.55000e-05
 Reference value :  1.55008e-05
 Reference value :  1.55030e-05
 Reference value :  1.55045e-05
 Reference value :  1.55051e-05
 Reference value :  1.55062e-05
 Reference value :  1.55093e-05
 Reference value :  1.55120e-05
 Reference value :  1.55139e-05
 Reference value :  1.55148e-05
 Reference value :  1.55170e-05
 Reference value :  1.55217e-05
 Reference value :  1.55283e-05
 Reference value :  1.55355e-05
 Reference value :  1.55429e-05
 Reference value :  1.55630e-05
 Reference value :  1.56282e-05
 Reference value :  1.57501e-05
 Reference value :  1.57502e-05
 Reference value :  1.57502e-05
 Reference value :  1.57504e-05
 Reference value :  1.57510e-05
 Reference value :  1.57519e-05
 Reference value :  1.57530e-05
 Reference value :  1.57534e-05
 Reference value :  1.57545e-05
 Reference value :  1.57559e-05
 Reference value :  1.57615e-05
 Reference value :  1.57849e-05
 Reference value :  1.59723e-05
 Reference value :  1.60000e-05
 Reference value :  1.60001e-05
 Reference value :  1.60002e-05
 Reference value :  1.60005e-05
 Reference value :  1.60012e-05
 Reference value :  1.60015e-05
 Reference value :  1.60023e-05
 Reference value :  1.60028e-05
 Reference value :  1.60039e-05
 Reference value :  1.60054e-05
 Reference value :  1.60060e-05
 Reference value :  1.60075e-05
 Reference value :  1.60092e-05
 Reference value :  1.60114e-05
 Reference value :  1.60221e-05
 Reference value :  1.60791e-05
 Reference value :  1.62501e-05
 Reference value :  1.62502e-05
 Reference value :  1.62502e-05
 Reference value :  1.62504e-05
 Reference value :  1.62510e-05
 Reference value :  1.62514e-05
 Reference value :  1.62523e-05
 Reference value :  1.62534e-05
 Reference value :  1.62545e-05
 Reference value :  1.62558e-05
 Reference value :  1.62584e-05
 Reference value :  1.62610e-05
 Reference value :  1.62897e-05
 Reference value :  1.64980e-05
 Reference value :  1.65001e-05
 Reference value :  1.65002e-05
 Reference value :  1.65008e-05
 Reference value :  1.65020e-05
 Reference value :  1.65029e-05
 Reference value :  1.65044e-05
 Reference value :  1.65059e-05
 Reference value :  1.65082e-05
 Reference value :  1.65124e-05
 Reference value :  1.65180e-05
 Reference value :  1.65225e-05
 Reference value :  1.65360e-05
 Reference value :  1.66146e-05
 Reference value :  1.67501e-05
 Reference value :  1.67502e-05
 Reference value :  1.67504e-05
 Reference value :  1.67514e-05
 Reference value :  1.67530e-05
 Reference value :  1.67553e-05
 Reference value :  1.67577e-05
 Reference value :  1.67750e-05
 Reference value :  1.68822e-05
 Reference value :  1.70000e-05
 Reference value :  1.70000e-05
 Reference value :  1.70000e-05
 Reference value :  1.70000e-05
 Reference value :  1.70001e-05
 Reference value :  1.70001e-05
 Reference value :  1.70001e-05
 Reference value :  1.70003e-05
 Reference value :  1.70007e-05
 Reference value :  1.70016e-05
 Reference value :  1.70024e-05
 Reference value :  1.70035e-05
 Reference value :  1.70045e-05
 Reference value :  1.70055e-05
 Reference value :  1.70120e-05
 Reference value :  1.70224e-05
 Reference value :  1.70263e-05
 Reference value :  1.70291e-05
 Reference value :  1.70317e-05
 Reference value :  1.70356e-05
 Reference value :  1.70388e-05
 Reference value :  1.70457e-05
 Reference value :  1.70538e-05
 Reference value :  1.70824e-05
 Reference value :  1.72126e-05
 Reference value :  1.72501e-05
 Reference value :  1.72502e-05
 Reference value :  1.72504e-05
 Reference value :  1.72514e-05
 Reference value :  1.72530e-05
 Reference value :  1.72540e-05
 Reference value :  1.72559e-05
 Reference value :  1.72647e-05
 Reference value :  1.73642e-05
 Reference value :  1.75000e-05
 Reference value :  1.75001e-05
 Reference value :  1.75002e-05
 Reference value :  1.75008e-05
 Reference value :  1.75016e-05
 Reference value :  1.75029e-05
 Reference value :  1.75040e-05
 Reference value :  1.75066e-05
 Reference value :  1.75101e-05
 Reference value :  1.75128e-05
 Reference value :  1.75180e-05
 Reference value :  1.75362e-05
 Reference value :  1.76392e-05
 Reference value :  1.77501e-05
 Reference value :  1.77502e-05
 Reference value :  1.77503e-05
 Reference value :  1.77507e-05
 Reference value :  1.77514e-05
 Reference value :  1.77530e-05
 Reference value :  1.77540e-05
 Reference value :  1.77550e-05
 Reference value :  1.77566e-05
 Reference value :  1.77697e-05
 Reference value :  1.79557e-05
 Reference value :  1.80008e-05
 Reference value :  1.80030e-05
 Reference value :  1.80044e-05
 Reference value :  1.80050e-05
 Reference value :  1.80062e-05
 Reference value :  1.80095e-05
 Reference value :  1.80121e-05
 Reference value :  1.80131e-05
 Reference value :  1.80148e-05
 Reference value :  1.80170e-05
 Reference value :  1.80221e-05
 Reference value :  1.80742e-05
 Reference value :  1.82501e-05
 Reference value :  1.82502e-05
 Reference value :  1.82503e-05
 Reference value :  1.82510e-05
 Reference value :  1.82519e-05
 Reference value :  1.82530e-05
 Reference value :  1.82539e-05
 Reference value :  1.82551e-05
 Reference value :  1.82613e-05
 Reference value :  1.83616e-05
 Reference value :  1.85000e-05
 Reference value :  1.85001e-05
 Reference value :  1.85002e-05
 Reference value :  1.85008e-05
 Reference value :  1.85016e-05
 Reference value :  1.85029e-05
 Reference value :  1.85047e-05
 Reference value :  1.85062e-05
 Reference value :  1.85077e-05
 Reference value :  1.85109e-05
 Reference value :  1.85293e-05
 Reference value :  1.86494e-05
 Reference value :  1.87501e-05
 Reference value :  1.87502e-05
 Reference value :  1.87504e-05
 Reference value :  1.87514e-05
 Reference value :  1.87530e-05
 Reference value :  1.87540e-05
 Reference value :  1.87550e-05
 Reference value :  1.87566e-05
 Reference value :  1.87698e-05
 Reference value :  1.89563e-05
 Reference value :  1.90000e-05
 Reference value :  1.90001e-05
 Reference value :  1.90003e-05
 Reference value :  1.90012e-05
 Reference value :  1.90020e-05
 Reference value :  1.90029e-05
 Reference value :  1.90040e-05
 Reference value :  1.90050e-05
 Reference value :  1.90071e-05
 Reference value :  1.90112e-05
 Reference value :  1.90132e-05
 Reference value :  1.90152e-05
 Reference value :  1.90191e-05
 Reference value :  1.90361e-05
 Reference value :  1.92046e-05
 Reference value :  1.92502e-05
 Reference value :  1.92503e-05
 Reference value :  1.92507e-05
 Reference value :  1.92514e-05
 Reference value :  1.92530e-05
 Reference value :  1.92540e-05
 Reference value :  1.92560e-05
 Reference value :  1.92652e-05
 Reference value :  1.93726e-05
 Reference value :  1.95002e-05
 Reference value :  1.95009e-05
 Reference value :  1.95019e-05
 Reference value :  1.95034e-05
 Reference value :  1.95055e-05
 Reference value :  1.95070e-05
 Reference value :  1.95086e-05
 Reference value :  1.95166e-05
 Reference value :  1.97086e-05
 Reference value :  1.97502e-05
 Reference value :  1.97504e-05
 Reference value :  1.97514e-05
 Reference value :  1.97530e-05
 Reference value :  1.97545e-05
 Reference value :  1.97582e-05
 Reference value :  1.98072e-05
 Reference value :  2.00000e-05
 Reference value :  2.00002e-05
 Reference value :  2.00008e-05
 Reference value :  2.00016e-05
 Reference value :  2.00029e-05
 Reference value :  2.00050e-05
 Reference value :  2.00085e-05
 Reference value :  2.00112e-05
 Reference value :  2.00143e-05
 Reference value :  2.00174e-05
 Reference value :  2.00361e-05
 Reference value :  2.01540e-05
 Reference value :  2.02501e-05
 Reference value :  2.02503e-05
 Reference value :  2.02510e-05
 Reference value :  2.02523e-05
 Reference value :  2.02535e-05
 Reference value :  2.02552e-05
 Reference value :  2.02652e-05
 Reference value :  2.04882e-05
 Reference value :  2.05002e-05
 Reference value :  2.05008e-05
 Reference value :  2.05018e-05
 Reference value :  2.05026e-05
 Reference value :  2.05043e-05
 Reference value :  2.05058e-05
 Reference value :  2.05083e-05
 Reference value :  2.05167e-05
 Reference value :  2.07119e-05
 Reference value :  2.07502e-05
 Reference value :  2.07503e-05
 Reference value :  2.07510e-05
 Reference value :  2.07519e-05
 Reference value :  2.07530e-05
 Reference value :  2.07534e-05
 Reference value :  2.07544e-05
 Reference value :  2.07557e-05
 Reference value :  2.07601e-05
 Reference value :  2.07810e-05
 Reference value :  2.09464e-05
 Reference value :  2.10001e-05
 Reference value :  2.10001e-05
 Reference value :  2.10003e-05
 Reference value :  2.10012e-05
 Reference value :  2.10020e-05
 Reference value :  2.10029e-05
 Reference value :  2.10045e-05
 Reference value :  2.10050e-05
 Reference value :  2.10071e-05
 Reference value :  2.10112e-05
 Reference value :  2.10132e-05
 Reference value :  2.10152e-05
 Reference value :  2.10191e-05
 Reference value :  2.10287e-05
 Reference value :  2.10334e-05
 Reference value :  2.10476e-05
 Reference value :  2.10718e-05
 Reference value :  2.11251e-05
 Reference value :  2.11580e-05
 Reference value :  2.11751e-05
 Reference value :  2.12028e-05
 Reference value :  2.12501e-05
 Reference value :  2.12502e-05
 Reference value :  2.12503e-05
 Reference value :  2.12507e-05
 Reference value :  2.12514e-05
 Reference value :  2.12530e-05
 Reference value :  2.12540e-05
 Reference value :  2.12546e-05
 Reference value :  2.12560e-05
 Reference value :  2.12589e-05
 Reference value :  2.12723e-05
 Reference value :  2.13722e-05
 Reference value :  2.15000e-05
 Reference value :  2.15001e-05
 Reference value :  2.15002e-05
 Reference value :  2.15005e-05
 Reference value :  2.15012e-05
 Reference value :  2.15016e-05
 Reference value :  2.15024e-05
 Reference value :  2.15034e-05
 Reference value :  2.15047e-05
 Reference value :  2.15062e-05
 Reference value :  2.15077e-05
 Reference value :  2.15095e-05
 Reference value :  2.15155e-05
 Reference value :  2.15463e-05
 Reference value :  2.17501e-05
 Reference value :  2.17501e-05
 Reference value :  2.17502e-05
 Reference value :  2.17503e-05
 Reference value :  2.17510e-05
 Reference value :  2.17519e-05
 Reference value :  2.17530e-05
 Reference value :  2.17534e-05
 Reference value :  2.17545e-05
 Reference value :  2.17558e-05
 Reference value :  2.17636e-05
 Reference value :  2.18573e-05
 Reference value :  2.20007e-05
 Reference value :  2.20029e-05
 Reference value :  2.20043e-05
 Reference value :  2.20055e-05
 Reference value :  2.20078e-05
 Reference value :  2.20092e-05
 Reference value :  2.20120e-05
 Reference value :  2.20139e-05
 Reference value :  2.20161e-05
 Reference value :  2.20205e-05
 Reference value :  2.20314e-05
 Reference value :  2.20403e-05
 Reference value :  2.20559e-05
 Reference value :  2.20893e-05
 Reference value :  2.22501e-05
 Reference value :  2.22502e-05
 Reference value :  2.22502e-05
 Reference value :  2.22504e-05
 Reference value :  2.22514e-05
 Reference value :  2.22529e-05
 Reference value :  2.22534e-05
 Reference value :  2.22545e-05
 Reference value :  2.22559e-05
 Reference value :  2.22615e-05
 Reference value :  2.22847e-05
 Reference value :  2.24707e-05
 Reference value :  2.25000e-05
 Reference value :  2.25001e-05
 Reference value :  2.25002e-05
 Reference value :  2.25005e-05
 Reference value :  2.25012e-05
 Reference value :  2.25019e-05
 Reference value :  2.25028e-05
 Reference value :  2.25046e-05
 Reference value :  2.25060e-05
 Reference value :  2.25075e-05
 Reference value :  2.25103e-05
 Reference value :  2.25222e-05
 Reference value :  2.27501e-05
 Reference value :  2.27502e-05
 Reference value :  2.27504e-05
 Reference value :  2.27514e-05
 Reference value :  2.27530e-05
 Reference value :  2.27545e-05
 Reference value :  2.27558e-05
 Reference value :  2.27584e-05
 Reference value :  2.27636e-05
 Reference value :  2.28791e-05
 Reference value :  2.30000e-05
 Reference value :  2.30001e-05
 Reference value :  2.30003e-05
 Reference value :  2.30012e-05
 Reference value :  2.30020e-05
 Reference value :  2.30029e-05
 Reference value :  2.30039e-05
 Reference value :  2.30049e-05
 Reference value :  2.30069e-05
 Reference value :  2.30087e-05
 Reference value :  2.30103e-05
 Reference value :  2.30119e-05
 Reference value :  2.30133e-05
 Reference value :  2.30150e-05
 Reference value :  2.30183e-05
 Reference value :  2.30215e-05
 Reference value :  2.30246e-05
 Reference value :  2.30315e-05
 Reference value :  2.30471e-05
 Reference value :  2.31794e-05
 Reference value :  2.32501e-05
 Reference value :  2.32502e-05
 Reference value :  2.32504e-05
 Reference value :  2.32510e-05
 Reference value :  2.32519e-05
 Reference value :  2.32530e-05
 Reference value :  2.32540e-05
 Reference value :  2.32552e-05
 Reference value :  2.32589e-05
 Reference value :  2.32864e-05
 Reference value :  2.35000e-05
 Reference value :  2.35001e-05
 Reference value :  2.35001e-05
 Reference value :  2.35003e-05
 Reference value :  2.35008e-05
 Reference value :  2.35020e-05
 Reference value :  2.35029e-05
 Reference value :  2.35047e-05
 Reference value :  2.35062e-05
 Reference value :  2.35077e-05
 Reference value :  2.35096e-05
 Reference value :  2.35205e-05
 Reference value :  2.36517e-05
 Reference value :  2.37501e-05
 Reference value :  2.37502e-05
 Reference value :  2.37504e-05
 Reference value :  2.37514e-05
 Reference value :  2.37530e-05
 Reference value :  2.37540e-05
 Reference value :  2.37558e-05
 Reference value :  2.37636e-05
 Reference value :  2.39579e-05
 Reference value :  2.40001e-05
 Reference value :  2.40002e-05
 Reference value :  2.40005e-05
 Reference value :  2.40016e-05
 Reference value :  2.40029e-05
 Reference value :  2.40045e-05
 Reference value :  2.40055e-05
 Reference value :  2.40085e-05
 Reference value :  2.40112e-05
 Reference value :  2.40132e-05
 Reference value :  2.40152e-05
 Reference value :  2.40191e-05
 Reference value :  2.40268e-05
 Reference value :  2.40298e-05
 Reference value :  2.40388e-05
 Reference value :  2.40567e-05
 Reference value :  2.40960e-05
 Reference value :  2.42501e-05
 Reference value :  2.42502e-05
 Reference value :  2.42503e-05
 Reference value :  2.42510e-05
 Reference value :  2.42519e-05
 Reference value :  2.42534e-05
 Reference value :  2.42553e-05
 Reference value :  2.42615e-05
 Reference value :  2.43134e-05
 Reference value :  2.45000e-05
 Reference value :  2.45001e-05
 Reference value :  2.45002e-05
 Reference value :  2.45005e-05
 Reference value :  2.45015e-05
 Reference value :  2.45028e-05
 Reference value :  2.45046e-05
 Reference value :  2.45060e-05
 Reference value :  2.45075e-05
 Reference value :  2.45092e-05
 Reference value :  2.45136e-05
 Reference value :  2.45474e-05
 Reference value :  2.47501e-05
 Reference value :  2.47502e-05
 Reference value :  2.47503e-05
 Reference value :  2.47510e-05
 Reference value :  2.47519e-05
 Reference value :  2.47534e-05
 Reference value :  2.47558e-05
 Reference value :  2.47596e-05
 Reference value :  2.48785e-05
 Reference value :  2.50001e-05
 Reference value :  2.50005e-05
 Reference value :  2.50020e-05
 Reference value :  2.50034e-05
 Reference value :  2.50048e-05
 Reference value :  2.50082e-05
 Reference value :  2.50144e-05
 Reference value :  2.50179e-05
 Reference value :  2.50262e-05
 Reference value :  2.52022e-05
 Reference value :  2.52502e-05
 Reference value :  2.52507e-05
 Reference value :  2.52519e-05
 Reference value :  2.52536e-05
 Reference value :  2.52562e-05
 Reference value :  2.52663e-05
 Reference value :  2.55000e-05
 Reference value :  2.55000e-05
 Reference value :  2.55000e-05
 Reference value :  2.55001e-05
 Reference value :  2.55001e-05
 Reference value :  2.55001e-05
 Reference value :  2.55001e-05
 Reference value :  2.55003e-05
 Reference value :  2.55007e-05
 Reference value :  2.55016e-05
 Reference value :  2.55020e-05
 Reference value :  2.55029e-05
 Reference value :  2.55040e-05
 Reference value :  2.55045e-05
 Reference value :  2.55055e-05
 Reference value :  2.55074e-05
 Reference value :  2.55120e-05
 Reference value :  2.55180e-05
 Reference value :  2.55218e-05
 Reference value :  2.55238e-05
 Reference value :  2.55278e-05
 Reference value :  2.55311e-05
 Reference value :  2.55340e-05
 Reference value :  2.55378e-05
 Reference value :  2.55463e-05
 Reference value :  2.55532e-05
 Reference value :  2.55675e-05
 Reference value :  2.57012e-05
 Reference value :  2.57502e-05
 Reference value :  2.57502e-05
 Reference value :  2.57507e-05
 Reference value :  2.57514e-05
 Reference value :  2.57530e-05
 Reference value :  2.57540e-05
 Reference value :  2.57559e-05
 Reference value :  2.57714e-05
 Reference value :  2.59709e-05
 Reference value :  2.60001e-05
 Reference value :  2.60005e-05
 Reference value :  2.60016e-05
 Reference value :  2.60024e-05
 Reference value :  2.60029e-05
 Reference value :  2.60040e-05
 Reference value :  2.60055e-05
 Reference value :  2.60065e-05
 Reference value :  2.60090e-05
 Reference value :  2.60115e-05
 Reference value :  2.60128e-05
 Reference value :  2.60162e-05
 Reference value :  2.60269e-05
 Reference value :  2.60805e-05
 Reference value :  2.62501e-05
 Reference value :  2.62501e-05
 Reference value :  2.62502e-05
 Reference value :  2.62503e-05
 Reference value :  2.62504e-05
 Reference value :  2.62510e-05
 Reference value :  2.62514e-05
 Reference value :  2.62523e-05
 Reference value :  2.62530e-05
 Reference value :  2.62534e-05
 Reference value :  2.62545e-05
 Reference value :  2.62558e-05
 Reference value :  2.62602e-05
 Reference value :  2.62822e-05
 Reference value :  2.64561e-05
 Reference value :  2.65007e-05
 Reference value :  2.65030e-05
 Reference value :  2.65038e-05
 Reference value :  2.65044e-05
 Reference value :  2.65050e-05
 Reference value :  2.65062e-05
 Reference value :  2.65080e-05
 Reference value :  2.65094e-05
 Reference value :  2.65121e-05
 Reference value :  2.65139e-05
 Reference value :  2.65159e-05
 Reference value :  2.65201e-05
 Reference value :  2.65444e-05
 Reference value :  2.67501e-05
 Reference value :  2.67502e-05
 Reference value :  2.67507e-05
 Reference value :  2.67519e-05
 Reference value :  2.67534e-05
 Reference value :  2.67545e-05
 Reference value :  2.67572e-05
 Reference value :  2.67708e-05
 Reference value :  2.69621e-05
 Reference value :  2.70001e-05
 Reference value :  2.70002e-05
 Reference value :  2.70005e-05
 Reference value :  2.70012e-05
 Reference value :  2.70020e-05
 Reference value :  2.70029e-05
 Reference value :  2.70040e-05
 Reference value :  2.70055e-05
 Reference value :  2.70062e-05
 Reference value :  2.70077e-05
 Reference value :  2.70096e-05
 Reference value :  2.70204e-05
 Reference value :  2.71497e-05
 Reference value :  2.72502e-05
 Reference value :  2.72503e-05
 Reference value :  2.72507e-05
 Reference value :  2.72514e-05
 Reference value :  2.72530e-05
 Reference value :  2.72540e-05
 Reference value :  2.72550e-05
 Reference value :  2.72582e-05
 Reference value :  2.72826e-05
 Reference value :  2.75000e-05
 Reference value :  2.75001e-05
 Reference value :  2.75001e-05
 Reference value :  2.75003e-05
 Reference value :  2.75008e-05
 Reference value :  2.75016e-05
 Reference value :  2.75029e-05
 Reference value :  2.75040e-05
 Reference value :  2.75050e-05
 Reference value :  2.75085e-05
 Reference value :  2.75112e-05
 Reference value :  2.75132e-05
 Reference value :  2.75152e-05
 Reference value :  2.75191e-05
 Reference value :  2.75287e-05
 Reference value :  2.76180e-05
 Reference value :  2.77501e-05
 Reference value :  2.77502e-05
 Reference value :  2.77504e-05
 Reference value :  2.77510e-05
 Reference value :  2.77514e-05
 Reference value :  2.77523e-05
 Reference value :  2.77534e-05
 Reference value :  2.77546e-05
 Reference value :  2.77574e-05
 Reference value :  2.77652e-05
 Reference value :  2.78727e-05
 Reference value :  2.80002e-05
 Reference value :  2.80009e-05
 Reference value :  2.80015e-05
 Reference value :  2.80028e-05
 Reference value :  2.80039e-05
 Reference value :  2.80054e-05
 Reference value :  2.80060e-05
 Reference value :  2.80075e-05
 Reference value :  2.80092e-05
 Reference value :  2.80113e-05
 Reference value :  2.80218e-05
 Reference value :  2.80953e-05
 Reference value :  2.82501e-05
 Reference value :  2.82502e-05
 Reference value :  2.82502e-05
 Reference value :  2.82503e-05
 Reference value :  2.82504e-05
 Reference value :  2.82510e-05
 Reference value :  2.82514e-05
 Reference value :  2.82523e-05
 Reference value :  2.82534e-05
 Reference value :  2.82545e-05
 Reference value :  2.82558e-05
 Reference value :  2.82603e-05
 Reference value :  2.82823e-05
 Reference value :  2.84569e-05
 Reference value :  2.85000e-05
 Reference value :  2.85001e-05
 Reference value :  2.85002e-05
 Reference value :  2.85003e-05
 Reference value :  2.85008e-05
 Reference value :  2.85016e-05
 Reference value :  2.85024e-05
 Reference value :  2.85029e-05
 Reference value :  2.85040e-05
 Reference value :  2.85050e-05
 Reference value :  2.85071e-05
 Reference value :  2.85100e-05
 Reference value :  2.85112e-05
 Reference value :  2.85132e-05
 Reference value :  2.85152e-05
 Reference value :  2.85191e-05
 Reference value :  2.85361e-05
 Reference value :  2.86004e-05
 Reference value :  2.86828e-05
 Reference value :  2.87501e-05
 Reference value :  2.87502e-05
 Reference value :  2.87503e-05
 Reference value :  2.87510e-05
 Reference value :  2.87519e-05
 Reference value :  2.87530e-05
 Reference value :  2.87540e-05
 Reference value :  2.87574e-05
 Reference value :  2.88156e-05
 Reference value :  2.90002e-05
 Reference value :  2.90008e-05
 Reference value :  2.90018e-05
 Reference value :  2.90031e-05
 Reference value :  2.90049e-05
 Reference value :  2.90075e-05
 Reference value :  2.90105e-05
 Reference value :  2.90361e-05
 Reference value :  2.92501e-05
 Reference value :  2.92502e-05
 Reference value :  2.92504e-05
 Reference value :  2.92514e-05
 Reference value :  2.92530e-05
 Reference value :  2.92544e-05
 Reference value :  2.92565e-05
 Reference value :  2.92692e-05
 Reference value :  2.95000e-05
 Reference value :  2.95001e-05
 Reference value :  2.95002e-05
 Reference value :  2.95005e-05
 Reference value :  2.95016e-05
 Reference value :  2.95029e-05
 Reference value :  2.95050e-05
 Reference value :  2.95085e-05
 Reference value :  2.95112e-05
 Reference value :  2.95143e-05
 Reference value :  2.95163e-05
 Reference value :  2.95207e-05
 Reference value :  2.95334e-05
 Reference value :  2.95477e-05
 Reference value :  2.95794e-05
 Reference value :  2.96428e-05
 Reference value :  2.96563e-05
 Reference value :  2.96810e-05
 Reference value :  2.97501e-05
 Reference value :  2.97503e-05
 Reference value :  2.97510e-05
 Reference value :  2.97523e-05
 Reference value :  2.97535e-05
 Reference value :  2.97546e-05
 Reference value :  2.97574e-05
 Reference value :  2.97723e-05
 Reference value :  2.98723e-05
 Reference value :  3.00000e-05
 Reference value :  3.00001e-05
 Reference value :  3.00002e-05
 Reference value :  3.00005e-05
 Reference value :  3.00012e-05
 Reference value :  3.00020e-05
 Reference value :  3.00029e-05
 Reference value :  3.00040e-05
 Reference value :  3.00055e-05
 Reference value :  3.00062e-05
 Reference value :  3.00077e-05
 Reference value :  3.00109e-05
 Reference value :  3.00292e-05
 Reference value :  3.02501e-05
 Reference value :  3.02502e-05
 Reference value :  3.02502e-05
 Reference value :  3.02504e-05
 Reference value :  3.02514e-05
 Reference value :  3.02530e-05
 Reference value :  3.02534e-05
 Reference value :  3.02545e-05
 Reference value :  3.02558e-05
 Reference value :  3.02603e-05
 Reference value :  3.03073e-05
 Reference value :  3.05007e-05
 Reference value :  3.05029e-05
 Reference value :  3.05043e-05
 Reference value :  3.05055e-05
 Reference value :  3.05078e-05
 Reference value :  3.05092e-05
 Reference value :  3.05119e-05
 Reference value :  3.05139e-05
 Reference value :  3.05173e-05
 Reference value :  3.05226e-05
 Reference value :  3.05312e-05
 Reference value :  3.05404e-05
 Reference value :  3.05564e-05
 Reference value :  3.05766e-05
 Reference value :  3.06985e-05
 Reference value :  3.07502e-05
 Reference value :  3.07503e-05
 Reference value :  3.07507e-05
 Reference value :  3.07514e-05
 Reference value :  3.07529e-05
 Reference value :  3.07539e-05
 Reference value :  3.07559e-05
 Reference value :  3.07648e-05
 Reference value :  3.09706e-05
 Reference value :  3.10001e-05
 Reference value :  3.10001e-05
 Reference value :  3.10003e-05
 Reference value :  3.10012e-05
 Reference value :  3.10019e-05
 Reference value :  3.10028e-05
 Reference value :  3.10039e-05
 Reference value :  3.10054e-05
 Reference value :  3.10066e-05
 Reference value :  3.10075e-05
 Reference value :  3.10103e-05
 Reference value :  3.10222e-05
 Reference value :  3.12501e-05
 Reference value :  3.12502e-05
 Reference value :  3.12502e-05
 Reference value :  3.12507e-05
 Reference value :  3.12514e-05
 Reference value :  3.12530e-05
 Reference value :  3.12540e-05
 Reference value :  3.12550e-05
 Reference value :  3.12566e-05
 Reference value :  3.12596e-05
 Reference value :  3.12673e-05
 Reference value :  3.13194e-05
 Reference value :  3.15000e-05
 Reference value :  3.15000e-05
 Reference value :  3.15001e-05
 Reference value :  3.15002e-05
 Reference value :  3.15003e-05
 Reference value :  3.15008e-05
 Reference value :  3.15016e-05
 Reference value :  3.15024e-05
 Reference value :  3.15034e-05
 Reference value :  3.15044e-05
 Reference value :  3.15053e-05
 Reference value :  3.15066e-05
 Reference value :  3.15085e-05
 Reference value :  3.15102e-05
 Reference value :  3.15119e-05
 Reference value :  3.15136e-05
 Reference value :  3.15164e-05
 Reference value :  3.15188e-05
 Reference value :  3.15209e-05
 Reference value :  3.15273e-05
 Reference value :  3.15552e-05
 Reference value :  3.17501e-05
 Reference value :  3.17502e-05
 Reference value :  3.17504e-05
 Reference value :  3.17514e-05
 Reference value :  3.17530e-05
 Reference value :  3.17546e-05
 Reference value :  3.17652e-05
 Reference value :  3.19867e-05
 Reference value :  3.20001e-05
 Reference value :  3.20002e-05
 Reference value :  3.20012e-05
 Reference value :  3.20024e-05
 Reference value :  3.20040e-05
 Reference value :  3.20062e-05
 Reference value :  3.20086e-05
 Reference value :  3.20155e-05
 Reference value :  3.21514e-05
 Reference value :  3.22502e-05
 Reference value :  3.22503e-05
 Reference value :  3.22510e-05
 Reference value :  3.22519e-05
 Reference value :  3.22534e-05
 Reference value :  3.22545e-05
 Reference value :  3.22558e-05
 Reference value :  3.22698e-05
 Reference value :  3.24557e-05
 Reference value :  3.25001e-05
 Reference value :  3.25002e-05
 Reference value :  3.25008e-05
 Reference value :  3.25020e-05
 Reference value :  3.25034e-05
 Reference value :  3.25050e-05
 Reference value :  3.25085e-05
 Reference value :  3.25112e-05
 Reference value :  3.25143e-05
 Reference value :  3.25191e-05
 Reference value :  3.25298e-05
 Reference value :  3.25392e-05
 Reference value :  3.25857e-05
 Reference value :  3.27501e-05
 Reference value :  3.27502e-05
 Reference value :  3.27504e-05
 Reference value :  3.27514e-05
 Reference value :  3.27530e-05
 Reference value :  3.27546e-05
 Reference value :  3.27588e-05
 Reference value :  3.27858e-05
 Reference value :  3.29802e-05
 Reference value :  3.30001e-05
 Reference value :  3.30002e-05
 Reference value :  3.30005e-05
 Reference value :  3.30015e-05
 Reference value :  3.30028e-05
 Reference value :  3.30046e-05
 Reference value :  3.30060e-05
 Reference value :  3.30075e-05
 Reference value :  3.30103e-05
 Reference value :  3.30167e-05
 Reference value :  3.30315e-05
 Reference value :  3.30532e-05
 Reference value :  3.31594e-05
 Reference value :  3.32501e-05
 Reference value :  3.32502e-05
 Reference value :  3.32503e-05
 Reference value :  3.32507e-05
 Reference value :  3.32514e-05
 Reference value :  3.32523e-05
 Reference value :  3.32530e-05
 Reference value :  3.32534e-05
 Reference value :  3.32545e-05
 Reference value :  3.32558e-05
 Reference value :  3.32582e-05
 Reference value :  3.32697e-05
 Reference value :  3.33558e-05
 Reference value :  3.35008e-05
 Reference value :  3.35031e-05
 Reference value :  3.35046e-05
 Reference value :  3.35059e-05
 Reference value :  3.35072e-05
 Reference value :  3.35100e-05
 Reference value :  3.35232e-05
 Reference value :  3.36884e-05
 Reference value :  3.37502e-05
 Reference value :  3.37502e-05
 Reference value :  3.37504e-05
 Reference value :  3.37510e-05
 Reference value :  3.37514e-05
 Reference value :  3.37523e-05
 Reference value :  3.37536e-05
 Reference value :  3.37553e-05
 Reference value :  3.37591e-05
 Reference value :  3.37909e-05
 Reference value :  3.40000e-05
 Reference value :  3.40000e-05
 Reference value :  3.40000e-05
 Reference value :  3.40000e-05
 Reference value :  3.40001e-05
 Reference value :  3.40002e-05
 Reference value :  3.40004e-05
 Reference value :  3.40012e-05
 Reference value :  3.40020e-05
 Reference value :  3.40029e-05
 Reference value :  3.40040e-05
 Reference value :  3.40045e-05
 Reference value :  3.40055e-05
 Reference value :  3.40090e-05
 Reference value :  3.40224e-05
 Reference value :  3.40263e-05
 Reference value :  3.40292e-05
 Reference value :  3.40318e-05
 Reference value :  3.40339e-05
 Reference value :  3.40376e-05
 Reference value :  3.40441e-05
 Reference value :  3.40519e-05
 Reference value :  3.40600e-05
 Reference value :  3.40852e-05
 Reference value :  3.41514e-05
 Reference value :  3.42501e-05
 Reference value :  3.42502e-05
 Reference value :  3.42503e-05
 Reference value :  3.42514e-05
 Reference value :  3.42530e-05
 Reference value :  3.42534e-05
 Reference value :  3.42545e-05
 Reference value :  3.42573e-05
 Reference value :  3.42647e-05
 Reference value :  3.43643e-05
 Reference value :  3.45000e-05
 Reference value :  3.45001e-05
 Reference value :  3.45001e-05
 Reference value :  3.45002e-05
 Reference value :  3.45005e-05
 Reference value :  3.45008e-05
 Reference value :  3.45016e-05
 Reference value :  3.45024e-05
 Reference value :  3.45034e-05
 Reference value :  3.45047e-05
 Reference value :  3.45066e-05
 Reference value :  3.45090e-05
 Reference value :  3.45115e-05
 Reference value :  3.45141e-05
 Reference value :  3.45181e-05
 Reference value :  3.45362e-05
 Reference value :  3.46402e-05
 Reference value :  3.47502e-05
 Reference value :  3.47503e-05
 Reference value :  3.47507e-05
 Reference value :  3.47514e-05
 Reference value :  3.47523e-05
 Reference value :  3.47534e-05
 Reference value :  3.47545e-05
 Reference value :  3.47558e-05
 Reference value :  3.47635e-05
 Reference value :  3.48566e-05
 Reference value :  3.50000e-05
 Reference value :  3.50001e-05
 Reference value :  3.50002e-05
 Reference value :  3.50008e-05
 Reference value :  3.50020e-05
 Reference value :  3.50029e-05
 Reference value :  3.50045e-05
 Reference value :  3.50055e-05
 Reference value :  3.50085e-05
 Reference value :  3.50112e-05
 Reference value :  3.50132e-05
 Reference value :  3.50152e-05
 Reference value :  3.50191e-05
 Reference value :  3.50287e-05
 Reference value :  3.50725e-05
 Reference value :  3.52501e-05
 Reference value :  3.52502e-05
 Reference value :  3.52503e-05
 Reference value :  3.52507e-05
 Reference value :  3.52514e-05
 Reference value :  3.52523e-05
 Reference value :  3.52534e-05
 Reference value :  3.52546e-05
 Reference value :  3.52574e-05
 Reference value :  3.52724e-05
 Reference value :  3.53726e-05
 Reference value :  3.55000e-05
 Reference value :  3.55001e-05
 Reference value :  3.55001e-05
 Reference value :  3.55003e-05
 Reference value :  3.55008e-05
 Reference value :  3.55016e-05
 Reference value :  3.55024e-05
 Reference value :  3.55029e-05
 Reference value :  3.55040e-05
 Reference value :  3.55055e-05
 Reference value :  3.55062e-05
 Reference value :  3.55077e-05
 Reference value :  3.55109e-05
 Reference value :  3.55205e-05
 Reference value :  3.55818e-05
 Reference value :  3.57501e-05
 Reference value :  3.57502e-05
 Reference value :  3.57503e-05
 Reference value :  3.57507e-05
 Reference value :  3.57514e-05
 Reference value :  3.57523e-05
 Reference value :  3.57534e-05
 Reference value :  3.57545e-05
 Reference value :  3.57558e-05
 Reference value :  3.57603e-05
 Reference value :  3.57824e-05
 Reference value :  3.59574e-05
 Reference value :  3.60007e-05
 Reference value :  3.60029e-05
 Reference value :  3.60037e-05
 Reference value :  3.60042e-05
 Reference value :  3.60055e-05
 Reference value :  3.60069e-05
 Reference value :  3.60092e-05
 Reference value :  3.60119e-05
 Reference value :  3.60129e-05
 Reference value :  3.60150e-05
 Reference value :  3.60172e-05
 Reference value :  3.60204e-05
 Reference value :  3.60331e-05
 Reference value :  3.61009e-05
 Reference value :  3.62501e-05
 Reference value :  3.62501e-05
 Reference value :  3.62502e-05
 Reference value :  3.62503e-05
 Reference value :  3.62507e-05
 Reference value :  3.62514e-05
 Reference value :  3.62523e-05
 Reference value :  3.62534e-05
 Reference value :  3.62545e-05
 Reference value :  3.62558e-05
 Reference value :  3.62585e-05
 Reference value :  3.62704e-05
 Reference value :  3.63583e-05
 Reference value :  3.65000e-05
 Reference value :  3.65001e-05
 Reference value :  3.65002e-05
 Reference value :  3.65005e-05
 Reference value :  3.65012e-05
 Reference value :  3.65016e-05
 Reference value :  3.65029e-05
 Reference value :  3.65040e-05
 Reference value :  3.65062e-05
 Reference value :  3.65077e-05
 Reference value :  3.65109e-05
 Reference value :  3.65290e-05
 Reference value :  3.67501e-05
 Reference value :  3.67502e-05
 Reference value :  3.67502e-05
 Reference value :  3.67504e-05
 Reference value :  3.67510e-05
 Reference value :  3.67514e-05
 Reference value :  3.67523e-05
 Reference value :  3.67534e-05
 Reference value :  3.67545e-05
 Reference value :  3.67558e-05
 Reference value :  3.67636e-05
 Reference value :  3.68586e-05
 Reference value :  3.70000e-05
 Reference value :  3.70001e-05
 Reference value :  3.70002e-05
 Reference value :  3.70005e-05
 Reference value :  3.70012e-05
 Reference value :  3.70020e-05
 Reference value :  3.70029e-05
 Reference value :  3.70040e-05
 Reference value :  3.70050e-05
 Reference value :  3.70063e-05
 Reference value :  3.70085e-05
 Reference value :  3.70112e-05
 Reference value :  3.70122e-05
 Reference value :  3.70143e-05
 Reference value :  3.70163e-05
 Reference value :  3.70191e-05
 Reference value :  3.70287e-05
 Reference value :  3.70724e-05
 Reference value :  3.71365e-05
 Reference value :  3.71876e-05
 Reference value :  3.72501e-05
 Reference value :  3.72502e-05
 Reference value :  3.72503e-05
 Reference value :  3.72510e-05
 Reference value :  3.72519e-05
 Reference value :  3.72530e-05
 Reference value :  3.72540e-05
 Reference value :  3.72552e-05
 Reference value :  3.72616e-05
 Reference value :  3.73732e-05
 Reference value :  3.75000e-05
 Reference value :  3.75001e-05
 Reference value :  3.75002e-05
 Reference value :  3.75003e-05
 Reference value :  3.75008e-05
 Reference value :  3.75016e-05
 Reference value :  3.75029e-05
 Reference value :  3.75040e-05
 Reference value :  3.75055e-05
 Reference value :  3.75062e-05
 Reference value :  3.75077e-05
 Reference value :  3.75109e-05
 Reference value :  3.75294e-05
 Reference value :  3.76512e-05
 Reference value :  3.77501e-05
 Reference value :  3.77502e-05
 Reference value :  3.77503e-05
 Reference value :  3.77510e-05
 Reference value :  3.77519e-05
 Reference value :  3.77530e-05
 Reference value :  3.77534e-05
 Reference value :  3.77545e-05
 Reference value :  3.77558e-05
 Reference value :  3.77636e-05
 Reference value :  3.78574e-05
 Reference value :  3.80000e-05
 Reference value :  3.80001e-05
 Reference value :  3.80002e-05
 Reference value :  3.80008e-05
 Reference value :  3.80016e-05
 Reference value :  3.80029e-05
 Reference value :  3.80045e-05
 Reference value :  3.80055e-05
 Reference value :  3.80085e-05
 Reference value :  3.80112e-05
 Reference value :  3.80132e-05
 Reference value :  3.80152e-05
 Reference value :  3.80174e-05
 Reference value :  3.80239e-05
 Reference value :  3.80334e-05
 Reference value :  3.80433e-05
 Reference value :  3.80533e-05
 Reference value :  3.80654e-05
 Reference value :  3.81085e-05
 Reference value :  3.81433e-05
 Reference value :  3.81648e-05
 Reference value :  3.81950e-05
 Reference value :  3.82501e-05
 Reference value :  3.82502e-05
 Reference value :  3.82503e-05
 Reference value :  3.82510e-05
 Reference value :  3.82519e-05
 Reference value :  3.82530e-05
 Reference value :  3.82540e-05
 Reference value :  3.82552e-05
 Reference value :  3.82616e-05
 Reference value :  3.83155e-05
 Reference value :  3.85002e-05
 Reference value :  3.85009e-05
 Reference value :  3.85014e-05
 Reference value :  3.85027e-05
 Reference value :  3.85038e-05
 Reference value :  3.85059e-05
 Reference value :  3.85074e-05
 Reference value :  3.85101e-05
 Reference value :  3.85227e-05
 Reference value :  3.87028e-05
 Reference value :  3.87501e-05
 Reference value :  3.87502e-05
 Reference value :  3.87507e-05
 Reference value :  3.87514e-05
 Reference value :  3.87530e-05
 Reference value :  3.87540e-05
 Reference value :  3.87550e-05
 Reference value :  3.87582e-05
 Reference value :  3.87816e-05
 Reference value :  3.90000e-05
 Reference value :  3.90001e-05
 Reference value :  3.90002e-05
 Reference value :  3.90005e-05
 Reference value :  3.90012e-05
 Reference value :  3.90020e-05
 Reference value :  3.90029e-05
 Reference value :  3.90045e-05
 Reference value :  3.90055e-05
 Reference value :  3.90071e-05
 Reference value :  3.90100e-05
 Reference value :  3.90112e-05
 Reference value :  3.90122e-05
 Reference value :  3.90143e-05
 Reference value :  3.90163e-05
 Reference value :  3.90208e-05
 Reference value :  3.90339e-05
 Reference value :  3.90413e-05
 Reference value :  3.90499e-05
 Reference value :  3.90668e-05
 Reference value :  3.91280e-05
 Reference value :  3.92501e-05
 Reference value :  3.92502e-05
 Reference value :  3.92507e-05
 Reference value :  3.92514e-05
 Reference value :  3.92530e-05
 Reference value :  3.92545e-05
 Reference value :  3.92587e-05
 Reference value :  3.93669e-05
 Reference value :  3.95001e-05
 Reference value :  3.95002e-05
 Reference value :  3.95012e-05
 Reference value :  3.95023e-05
 Reference value :  3.95039e-05
 Reference value :  3.95060e-05
 Reference value :  3.95075e-05
 Reference value :  3.95103e-05
 Reference value :  3.95318e-05
 Reference value :  3.97501e-05
 Reference value :  3.97502e-05
 Reference value :  3.97510e-05
 Reference value :  3.97523e-05
 Reference value :  3.97534e-05
 Reference value :  3.97550e-05
 Reference value :  3.97575e-05
 Reference value :  3.97636e-05
 Reference value :  3.98791e-05
 Reference value :  4.00001e-05
 Reference value :  4.00003e-05
 Reference value :  4.00016e-05
 Reference value :  4.00034e-05
 Reference value :  4.00048e-05
 Reference value :  4.00076e-05
 Reference value :  4.00102e-05
 Reference value :  4.00136e-05
 Reference value :  4.00174e-05
 Reference value :  4.00203e-05
 Reference value :  4.00305e-05
 Reference value :  4.01662e-05
 Reference value :  4.02502e-05
 Reference value :  4.02504e-05
 Reference value :  4.02519e-05
 Reference value :  4.02534e-05
 Reference value :  4.02552e-05
 Reference value :  4.02616e-05
 Reference value :  4.03724e-05
 Reference value :  4.05001e-05
 Reference value :  4.05002e-05
 Reference value :  4.05008e-05
 Reference value :  4.05016e-05
 Reference value :  4.05029e-05
 Reference value :  4.05047e-05
 Reference value :  4.05062e-05
 Reference value :  4.05077e-05
 Reference value :  4.05109e-05
 Reference value :  4.05294e-05
 Reference value :  4.07501e-05
 Reference value :  4.07502e-05
 Reference value :  4.07502e-05
 Reference value :  4.07504e-05
 Reference value :  4.07514e-05
 Reference value :  4.07530e-05
 Reference value :  4.07540e-05
 Reference value :  4.07550e-05
 Reference value :  4.07566e-05
 Reference value :  4.07698e-05
 Reference value :  4.09557e-05
 Reference value :  4.10008e-05
 Reference value :  4.10030e-05
 Reference value :  4.10045e-05
 Reference value :  4.10050e-05
 Reference value :  4.10069e-05
 Reference value :  4.10093e-05
 Reference value :  4.10120e-05
 Reference value :  4.10139e-05
 Reference value :  4.10159e-05
 Reference value :  4.10201e-05
 Reference value :  4.10255e-05
 Reference value :  4.10321e-05
 Reference value :  4.10376e-05
 Reference value :  4.10439e-05
 Reference value :  4.10815e-05
 Reference value :  4.12027e-05
 Reference value :  4.12501e-05
 Reference value :  4.12502e-05
 Reference value :  4.12503e-05
 Reference value :  4.12510e-05
 Reference value :  4.12519e-05
 Reference value :  4.12530e-05
 Reference value :  4.12534e-05
 Reference value :  4.12545e-05
 Reference value :  4.12572e-05
 Reference value :  4.12644e-05
 Reference value :  4.13090e-05
 Reference value :  4.15000e-05
 Reference value :  4.15001e-05
 Reference value :  4.15002e-05
 Reference value :  4.15005e-05
 Reference value :  4.15012e-05
 Reference value :  4.15020e-05
 Reference value :  4.15029e-05
 Reference value :  4.15040e-05
 Reference value :  4.15062e-05
 Reference value :  4.15077e-05
 Reference value :  4.15109e-05
 Reference value :  4.15202e-05
 Reference value :  4.15776e-05
 Reference value :  4.17501e-05
 Reference value :  4.17502e-05
 Reference value :  4.17503e-05
 Reference value :  4.17507e-05
 Reference value :  4.17514e-05
 Reference value :  4.17523e-05
 Reference value :  4.17534e-05
 Reference value :  4.17545e-05
 Reference value :  4.17558e-05
 Reference value :  4.17603e-05
 Reference value :  4.17826e-05
 Reference value :  4.19595e-05
 Reference value :  4.20000e-05
 Reference value :  4.20001e-05
 Reference value :  4.20002e-05
 Reference value :  4.20008e-05
 Reference value :  4.20016e-05
 Reference value :  4.20029e-05
 Reference value :  4.20040e-05
 Reference value :  4.20050e-05
 Reference value :  4.20064e-05
 Reference value :  4.20088e-05
 Reference value :  4.20226e-05
 Reference value :  4.22321e-05
 Reference value :  4.22501e-05
 Reference value :  4.22502e-05
 Reference value :  4.22503e-05
 Reference value :  4.22510e-05
 Reference value :  4.22519e-05
 Reference value :  4.22530e-05
 Reference value :  4.22553e-05
 Reference value :  4.22577e-05
 Reference value :  4.22749e-05
 Reference value :  4.25000e-05
 Reference value :  4.25000e-05
 Reference value :  4.25000e-05
 Reference value :  4.25000e-05
 Reference value :  4.25001e-05
 Reference value :  4.25003e-05
 Reference value :  4.25007e-05
 Reference value :  4.25016e-05
 Reference value :  4.25020e-05
 Reference value :  4.25029e-05
 Reference value :  4.25045e-05
 Reference value :  4.25074e-05
 Reference value :  4.25224e-05
 Reference value :  4.25263e-05
 Reference value :  4.25292e-05
 Reference value :  4.25318e-05
 Reference value :  4.25339e-05
 Reference value :  4.25375e-05
 Reference value :  4.25478e-05
 Reference value :  4.25597e-05
 Reference value :  4.26019e-05
 Reference value :  4.27501e-05
 Reference value :  4.27502e-05
 Reference value :  4.27503e-05
 Reference value :  4.27510e-05
 Reference value :  4.27523e-05
 Reference value :  4.27534e-05
 Reference value :  4.27551e-05
 Reference value :  4.27587e-05
 Reference value :  4.27714e-05
 Reference value :  4.28644e-05
 Reference value :  4.30000e-05
 Reference value :  4.30001e-05
 Reference value :  4.30002e-05
 Reference value :  4.30008e-05
 Reference value :  4.30016e-05
 Reference value :  4.30029e-05
 Reference value :  4.30040e-05
 Reference value :  4.30066e-05
 Reference value :  4.30090e-05
 Reference value :  4.30115e-05
 Reference value :  4.30141e-05
 Reference value :  4.30181e-05
 Reference value :  4.30362e-05
 Reference value :  4.32501e-05
 Reference value :  4.32502e-05
 Reference value :  4.32502e-05
 Reference value :  4.32504e-05
 Reference value :  4.32514e-05
 Reference value :  4.32530e-05
 Reference value :  4.32540e-05
 Reference value :  4.32550e-05
 Reference value :  4.32566e-05
 Reference value :  4.32697e-05
 Reference value :  4.33566e-05
 Reference value :  4.35007e-05
 Reference value :  4.35022e-05
 Reference value :  4.35030e-05
 Reference value :  4.35044e-05
 Reference value :  4.35056e-05
 Reference value :  4.35080e-05
 Reference value :  4.35095e-05
 Reference value :  4.35121e-05
 Reference value :  4.35129e-05
 Reference value :  4.35148e-05
 Reference value :  4.35168e-05
 Reference value :  4.35196e-05
 Reference value :  4.35398e-05
 Reference value :  4.37273e-05
 Reference value :  4.37501e-05
 Reference value :  4.37502e-05
 Reference value :  4.37503e-05
 Reference value :  4.37507e-05
 Reference value :  4.37514e-05
 Reference value :  4.37523e-05
 Reference value :  4.37534e-05
 Reference value :  4.37545e-05
 Reference value :  4.37572e-05
 Reference value :  4.37645e-05
 Reference value :  4.38095e-05
 Reference value :  4.40000e-05
 Reference value :  4.40001e-05
 Reference value :  4.40001e-05
 Reference value :  4.40003e-05
 Reference value :  4.40008e-05
 Reference value :  4.40016e-05
 Reference value :  4.40024e-05
 Reference value :  4.40029e-05
 Reference value :  4.40040e-05
 Reference value :  4.40055e-05
 Reference value :  4.40062e-05
 Reference value :  4.40077e-05
 Reference value :  4.40095e-05
 Reference value :  4.40155e-05
 Reference value :  4.40461e-05
 Reference value :  4.42501e-05
 Reference value :  4.42501e-05
 Reference value :  4.42502e-05
 Reference value :  4.42503e-05
 Reference value :  4.42507e-05
 Reference value :  4.42514e-05
 Reference value :  4.42523e-05
 Reference value :  4.42534e-05
 Reference value :  4.42545e-05
 Reference value :  4.42558e-05
 Reference value :  4.42636e-05
 Reference value :  4.43576e-05
 Reference value :  4.45000e-05
 Reference value :  4.45001e-05
 Reference value :  4.45002e-05
 Reference value :  4.45008e-05
 Reference value :  4.45016e-05
 Reference value :  4.45029e-05
 Reference value :  4.45040e-05
 Reference value :  4.45050e-05
 Reference value :  4.45071e-05
 Reference value :  4.45100e-05
 Reference value :  4.45122e-05
 Reference value :  4.45143e-05
 Reference value :  4.45163e-05
 Reference value :  4.45207e-05
 Reference value :  4.45494e-05
 Reference value :  4.47068e-05
 Reference value :  4.47501e-05
 Reference value :  4.47502e-05
 Reference value :  4.47503e-05
 Reference value :  4.47510e-05
 Reference value :  4.47519e-05
 Reference value :  4.47530e-05
 Reference value :  4.47534e-05
 Reference value :  4.47546e-05
 Reference value :  4.47574e-05
 Reference value :  4.47652e-05
 Reference value :  4.48726e-05
 Reference value :  4.50000e-05
 Reference value :  4.50001e-05
 Reference value :  4.50002e-05
 Reference value :  4.50003e-05
 Reference value :  4.50008e-05
 Reference value :  4.50016e-05
 Reference value :  4.50024e-05
 Reference value :  4.50034e-05
 Reference value :  4.50047e-05
 Reference value :  4.50062e-05
 Reference value :  4.50077e-05
 Reference value :  4.50096e-05
 Reference value :  4.50155e-05
 Reference value :  4.50469e-05
 Reference value :  4.52501e-05
 Reference value :  4.52501e-05
 Reference value :  4.52502e-05
 Reference value :  4.52503e-05
 Reference value :  4.52510e-05
 Reference value :  4.52519e-05
 Reference value :  4.52530e-05
 Reference value :  4.52540e-05
 Reference value :  4.52558e-05
 Reference value :  4.52636e-05
 Reference value :  4.53074e-05
 Reference value :  4.55000e-05
 Reference value :  4.55001e-05
 Reference value :  4.55002e-05
 Reference value :  4.55005e-05
 Reference value :  4.55012e-05
 Reference value :  4.55016e-05
 Reference value :  4.55024e-05
 Reference value :  4.55029e-05
 Reference value :  4.55040e-05
 Reference value :  4.55050e-05
 Reference value :  4.55063e-05
 Reference value :  4.55085e-05
 Reference value :  4.55112e-05
 Reference value :  4.55122e-05
 Reference value :  4.55143e-05
 Reference value :  4.55152e-05
 Reference value :  4.55191e-05
 Reference value :  4.55361e-05
 Reference value :  4.56343e-05
 Reference value :  4.57163e-05
 Reference value :  4.57501e-05
 Reference value :  4.57502e-05
 Reference value :  4.57504e-05
 Reference value :  4.57514e-05
 Reference value :  4.57530e-05
 Reference value :  4.57540e-05
 Reference value :  4.57552e-05
 Reference value :  4.57574e-05
 Reference value :  4.57724e-05
 Reference value :  4.59883e-05
 Reference value :  4.60002e-05
 Reference value :  4.60008e-05
 Reference value :  4.60014e-05
 Reference value :  4.60026e-05
 Reference value :  4.60037e-05
 Reference value :  4.60058e-05
 Reference value :  4.60074e-05
 Reference value :  4.60091e-05
 Reference value :  4.60135e-05
 Reference value :  4.60605e-05
 Reference value :  4.62501e-05
 Reference value :  4.62502e-05
 Reference value :  4.62503e-05
 Reference value :  4.62510e-05
 Reference value :  4.62519e-05
 Reference value :  4.62534e-05
 Reference value :  4.62544e-05
 Reference value :  4.62557e-05
 Reference value :  4.62601e-05
 Reference value :  4.63046e-05
 Reference value :  4.65000e-05
 Reference value :  4.65001e-05
 Reference value :  4.65001e-05
 Reference value :  4.65002e-05
 Reference value :  4.65005e-05
 Reference value :  4.65012e-05
 Reference value :  4.65016e-05
 Reference value :  4.65024e-05
 Reference value :  4.65034e-05
 Reference value :  4.65045e-05
 Reference value :  4.65050e-05
 Reference value :  4.65063e-05
 Reference value :  4.65085e-05
 Reference value :  4.65112e-05
 Reference value :  4.65122e-05
 Reference value :  4.65143e-05
 Reference value :  4.65152e-05
 Reference value :  4.65174e-05
 Reference value :  4.65239e-05
 Reference value :  4.65334e-05
 Reference value :  4.65422e-05
 Reference value :  4.65572e-05
 Reference value :  4.65686e-05
 Reference value :  4.66152e-05
 Reference value :  4.66404e-05
 Reference value :  4.66544e-05
 Reference value :  4.66776e-05
 Reference value :  4.67501e-05
 Reference value :  4.67502e-05
 Reference value :  4.67503e-05
 Reference value :  4.67510e-05
 Reference value :  4.67519e-05
 Reference value :  4.67530e-05
 Reference value :  4.67540e-05
 Reference value :  4.67560e-05
 Reference value :  4.67652e-05
 Reference value :  4.68727e-05
 Reference value :  4.70001e-05
 Reference value :  4.70002e-05
 Reference value :  4.70008e-05
 Reference value :  4.70016e-05
 Reference value :  4.70034e-05
 Reference value :  4.70055e-05
 Reference value :  4.70077e-05
 Reference value :  4.70125e-05
 Reference value :  4.71491e-05
 Reference value :  4.72502e-05
 Reference value :  4.72503e-05
 Reference value :  4.72514e-05
 Reference value :  4.72530e-05
 Reference value :  4.72540e-05
 Reference value :  4.72558e-05
 Reference value :  4.72698e-05
 Reference value :  4.75000e-05
 Reference value :  4.75001e-05
 Reference value :  4.75002e-05
 Reference value :  4.75012e-05
 Reference value :  4.75024e-05
 Reference value :  4.75040e-05
 Reference value :  4.75050e-05
 Reference value :  4.75071e-05
 Reference value :  4.75112e-05
 Reference value :  4.75132e-05
 Reference value :  4.75163e-05
 Reference value :  4.75289e-05
 Reference value :  4.75377e-05
 Reference value :  4.75499e-05
 Reference value :  4.75733e-05
 Reference value :  4.76648e-05
 Reference value :  4.77502e-05
 Reference value :  4.77504e-05
 Reference value :  4.77514e-05
 Reference value :  4.77530e-05
 Reference value :  4.77546e-05
 Reference value :  4.77588e-05
 Reference value :  4.78135e-05
 Reference value :  4.80000e-05
 Reference value :  4.80002e-05
 Reference value :  4.80008e-05
 Reference value :  4.80019e-05
 Reference value :  4.80028e-05
 Reference value :  4.80039e-05
 Reference value :  4.80054e-05
 Reference value :  4.80060e-05
 Reference value :  4.80075e-05
 Reference value :  4.80092e-05
 Reference value :  4.80103e-05
 Reference value :  4.80167e-05
 Reference value :  4.80474e-05
 Reference value :  4.82501e-05
 Reference value :  4.82501e-05
 Reference value :  4.82502e-05
 Reference value :  4.82503e-05
 Reference value :  4.82510e-05
 Reference value :  4.82514e-05
 Reference value :  4.82523e-05
 Reference value :  4.82534e-05
 Reference value :  4.82545e-05
 Reference value :  4.82558e-05
 Reference value :  4.82584e-05
 Reference value :  4.82636e-05
 Reference value :  4.83197e-05
 Reference value :  4.85000e-05
 Reference value :  4.85001e-05
 Reference value :  4.85002e-05
 Reference value :  4.85008e-05
 Reference value :  4.85016e-05
 Reference value :  4.85029e-05
 Reference value :  4.85039e-05
 Reference value :  4.85048e-05
 Reference value :  4.85059e-05
 Reference value :  4.85076e-05
 Reference value :  4.85093e-05
 Reference value :  4.85102e-05
 Reference value :  4.85119e-05
 Reference value :  4.85136e-05
 Reference value :  4.85153e-05
 Reference value :  4.85173e-05
 Reference value :  4.85194e-05
 Reference value :  4.85249e-05
 Reference value :  4.85302e-05
 Reference value :  4.85432e-05
 Reference value :  4.86149e-05
[...]
 Reference value :  1.64521e-04
 Reference value :  1.64572e-04
 Reference value :  1.64659e-04
 Reference value :  1.64750e-04
 Reference value :  1.64750e-04
 Reference value :  1.64750e-04
 Reference value :  1.64751e-04
 Reference value :  1.64752e-04
 Reference value :  1.64753e-04
 Reference value :  1.64755e-04
 Reference value :  1.64757e-04
 Reference value :  1.64772e-04
 Reference value :  1.64988e-04
 Reference value :  1.65000e-04
 Reference value :  1.65000e-04
 Reference value :  1.65001e-04
 Reference value :  1.65002e-04
 Reference value :  1.65003e-04
 Reference value :  1.65004e-04
 Reference value :  1.65006e-04
 Reference value :  1.65006e-04
 Reference value :  1.65008e-04
 Reference value :  1.65011e-04
 Reference value :  1.65029e-04
 Reference value :  1.65151e-04
 Reference value :  1.65250e-04
 Reference value :  1.65250e-04
 Reference value :  1.65250e-04
 Reference value :  1.65251e-04
 Reference value :  1.65252e-04
 Reference value :  1.65253e-04
 Reference value :  1.65254e-04
 Reference value :  1.65256e-04
 Reference value :  1.65264e-04
 Reference value :  1.65357e-04
 Reference value :  1.65500e-04
 Reference value :  1.65500e-04
 Reference value :  1.65500e-04
 Reference value :  1.65501e-04
 Reference value :  1.65501e-04
 Reference value :  1.65502e-04
 Reference value :  1.65503e-04
 Reference value :  1.65504e-04
 Reference value :  1.65505e-04
 Reference value :  1.65507e-04
 Reference value :  1.65511e-04
 Reference value :  1.65513e-04
 Reference value :  1.65515e-04
 Reference value :  1.65519e-04
 Reference value :  1.65535e-04
 Reference value :  1.65550e-04
 Reference value :  1.65562e-04
 Reference value :  1.65583e-04
 Reference value :  1.65592e-04
 Reference value :  1.65598e-04
 Reference value :  1.65609e-04
 Reference value :  1.65650e-04
 Reference value :  1.65750e-04
 Reference value :  1.65750e-04
 Reference value :  1.65750e-04
 Reference value :  1.65751e-04
 Reference value :  1.65751e-04
 Reference value :  1.65753e-04
 Reference value :  1.65754e-04
 Reference value :  1.65756e-04
 Reference value :  1.65765e-04
 Reference value :  1.65873e-04
 Reference value :  1.66000e-04
 Reference value :  1.66000e-04
 Reference value :  1.66000e-04
 Reference value :  1.66001e-04
 Reference value :  1.66002e-04
 Reference value :  1.66003e-04
 Reference value :  1.66004e-04
 Reference value :  1.66006e-04
 Reference value :  1.66008e-04
 Reference value :  1.66011e-04
 Reference value :  1.66029e-04
 Reference value :  1.66250e-04
 Reference value :  1.66250e-04
 Reference value :  1.66250e-04
 Reference value :  1.66251e-04
 Reference value :  1.66252e-04
 Reference value :  1.66253e-04
 Reference value :  1.66254e-04
 Reference value :  1.66256e-04
 Reference value :  1.66264e-04
 Reference value :  1.66357e-04
 Reference value :  1.66500e-04
 Reference value :  1.66500e-04
 Reference value :  1.66500e-04
 Reference value :  1.66501e-04
 Reference value :  1.66502e-04
 Reference value :  1.66503e-04
 Reference value :  1.66505e-04
 Reference value :  1.66507e-04
 Reference value :  1.66511e-04
 Reference value :  1.66513e-04
 Reference value :  1.66515e-04
 Reference value :  1.66519e-04
 Reference value :  1.66533e-04
 Reference value :  1.66541e-04
 Reference value :  1.66549e-04
 Reference value :  1.66566e-04
 Reference value :  1.66591e-04
 Reference value :  1.66604e-04
 Reference value :  1.66614e-04
 Reference value :  1.66630e-04
 Reference value :  1.66705e-04
 Reference value :  1.66750e-04
 Reference value :  1.66750e-04
 Reference value :  1.66750e-04
 Reference value :  1.66751e-04
 Reference value :  1.66753e-04
 Reference value :  1.66754e-04
 Reference value :  1.66756e-04
 Reference value :  1.66772e-04
 Reference value :  1.67000e-04
 Reference value :  1.67000e-04
 Reference value :  1.67001e-04
 Reference value :  1.67002e-04
 Reference value :  1.67003e-04
 Reference value :  1.67005e-04
 Reference value :  1.67006e-04
 Reference value :  1.67009e-04
 Reference value :  1.67015e-04
 Reference value :  1.67148e-04
 Reference value :  1.67250e-04
 Reference value :  1.67250e-04
 Reference value :  1.67251e-04
 Reference value :  1.67252e-04
 Reference value :  1.67254e-04
 Reference value :  1.67256e-04
 Reference value :  1.67270e-04
 Reference value :  1.67500e-04
 Reference value :  1.67500e-04
 Reference value :  1.67500e-04
 Reference value :  1.67501e-04
 Reference value :  1.67502e-04
 Reference value :  1.67503e-04
 Reference value :  1.67505e-04
 Reference value :  1.67507e-04
 Reference value :  1.67510e-04
 Reference value :  1.67511e-04
 Reference value :  1.67512e-04
 Reference value :  1.67515e-04
 Reference value :  1.67519e-04
 Reference value :  1.67528e-04
 Reference value :  1.67535e-04
 Reference value :  1.67545e-04
 Reference value :  1.67589e-04
 Reference value :  1.67639e-04
 Reference value :  1.67681e-04
 Reference value :  1.67750e-04
 Reference value :  1.67750e-04
 Reference value :  1.67751e-04
 Reference value :  1.67752e-04
 Reference value :  1.67753e-04
 Reference value :  1.67754e-04
 Reference value :  1.67756e-04
 Reference value :  1.67772e-04
 Reference value :  1.68000e-04
 Reference value :  1.68000e-04
 Reference value :  1.68000e-04
 Reference value :  1.68001e-04
 Reference value :  1.68002e-04
 Reference value :  1.68003e-04
 Reference value :  1.68006e-04
 Reference value :  1.68007e-04
 Reference value :  1.68009e-04
 Reference value :  1.68015e-04
 Reference value :  1.68148e-04
 Reference value :  1.68250e-04
 Reference value :  1.68250e-04
 Reference value :  1.68251e-04
 Reference value :  1.68252e-04
 Reference value :  1.68253e-04
 Reference value :  1.68254e-04
 Reference value :  1.68257e-04
 Reference value :  1.68270e-04
 Reference value :  1.68500e-04
 Reference value :  1.68500e-04
 Reference value :  1.68500e-04
 Reference value :  1.68502e-04
 Reference value :  1.68503e-04
 Reference value :  1.68505e-04
 Reference value :  1.68508e-04
 Reference value :  1.68512e-04
 Reference value :  1.68515e-04
 Reference value :  1.68519e-04
 Reference value :  1.68527e-04
 Reference value :  1.68530e-04
 Reference value :  1.68539e-04
 Reference value :  1.68570e-04
 Reference value :  1.68726e-04
 Reference value :  1.68750e-04
 Reference value :  1.68750e-04
 Reference value :  1.68751e-04
 Reference value :  1.68751e-04
 Reference value :  1.68753e-04
 Reference value :  1.68754e-04
 Reference value :  1.68756e-04
 Reference value :  1.68765e-04
 Reference value :  1.68868e-04
 Reference value :  1.68926e-04
 Reference value :  1.68996e-04
 Reference value :  1.69000e-04
 Reference value :  1.69000e-04
 Reference value :  1.69000e-04
 Reference value :  1.69000e-04
 Reference value :  1.69001e-04
 Reference value :  1.69001e-04
 Reference value :  1.69002e-04
 Reference value :  1.69003e-04
 Reference value :  1.69004e-04
 Reference value :  1.69006e-04
 Reference value :  1.69006e-04
 Reference value :  1.69008e-04
 Reference value :  1.69010e-04
 Reference value :  1.69015e-04
 Reference value :  1.69042e-04
 Reference value :  1.69246e-04
 Reference value :  1.69250e-04
 Reference value :  1.69250e-04
 Reference value :  1.69250e-04
 Reference value :  1.69251e-04
 Reference value :  1.69251e-04
 Reference value :  1.69252e-04
 Reference value :  1.69253e-04
 Reference value :  1.69253e-04
 Reference value :  1.69254e-04
 Reference value :  1.69256e-04
 Reference value :  1.69260e-04
 Reference value :  1.69307e-04
 Reference value :  1.69500e-04
 Reference value :  1.69500e-04
 Reference value :  1.69500e-04
 Reference value :  1.69501e-04
 Reference value :  1.69502e-04
 Reference value :  1.69503e-04
 Reference value :  1.69505e-04
 Reference value :  1.69506e-04
 Reference value :  1.69508e-04
 Reference value :  1.69510e-04
 Reference value :  1.69523e-04
 Reference value :  1.69750e-04
 Reference value :  1.69750e-04
 Reference value :  1.69750e-04
 Reference value :  1.69751e-04
 Reference value :  1.69751e-04
 Reference value :  1.69752e-04
 Reference value :  1.69754e-04
 Reference value :  1.69755e-04
 Reference value :  1.69758e-04
 Reference value :  1.69766e-04
 Reference value :  1.69822e-04
 Reference value :  1.70000e-04
 Reference value :  1.70000e-04
 Reference value :  1.70000e-04
 Reference value :  1.70000e-04
 Reference value :  1.70000e-04
 Reference value :  1.70000e-04
 Reference value :  1.70000e-04
 Reference value :  1.70001e-04
 Reference value :  1.70002e-04
 Reference value :  1.70002e-04
 Reference value :  1.70003e-04
 Reference value :  1.70004e-04
 Reference value :  1.70006e-04
 Reference value :  1.70009e-04
 Reference value :  1.70017e-04
 Reference value :  1.70022e-04
 Reference value :  1.70026e-04
 Reference value :  1.70029e-04
 Reference value :  1.70032e-04
 Reference value :  1.70036e-04
 Reference value :  1.70039e-04
 Reference value :  1.70044e-04
 Reference value :  1.70047e-04
 Reference value :  1.70054e-04
 Reference value :  1.70063e-04
 Reference value :  1.70079e-04
 Reference value :  1.70117e-04
 Reference value :  1.70250e-04
 Reference value :  1.70250e-04
 Reference value :  1.70250e-04
 Reference value :  1.70250e-04
 Reference value :  1.70251e-04
 Reference value :  1.70252e-04
 Reference value :  1.70253e-04
 Reference value :  1.70255e-04
 Reference value :  1.70265e-04
 Reference value :  1.70471e-04
 Reference value :  1.70500e-04
 Reference value :  1.70500e-04
 Reference value :  1.70501e-04
 Reference value :  1.70502e-04
 Reference value :  1.70504e-04
 Reference value :  1.70507e-04
 Reference value :  1.70510e-04
 Reference value :  1.70514e-04
 Reference value :  1.70536e-04
 Reference value :  1.70750e-04
 Reference value :  1.70750e-04
 Reference value :  1.70751e-04
 Reference value :  1.70752e-04
 Reference value :  1.70753e-04
 Reference value :  1.70755e-04
 Reference value :  1.70760e-04
 Reference value :  1.70956e-04
 Reference value :  1.71000e-04
 Reference value :  1.71000e-04
 Reference value :  1.71001e-04
 Reference value :  1.71002e-04
 Reference value :  1.71003e-04
 Reference value :  1.71005e-04
 Reference value :  1.71007e-04
 Reference value :  1.71011e-04
 Reference value :  1.71014e-04
 Reference value :  1.71017e-04
 Reference value :  1.71036e-04
 Reference value :  1.71250e-04
 Reference value :  1.71250e-04
 Reference value :  1.71251e-04
 Reference value :  1.71251e-04
 Reference value :  1.71253e-04
 Reference value :  1.71255e-04
 Reference value :  1.71259e-04
 Reference value :  1.71315e-04
 Reference value :  1.71500e-04
 Reference value :  1.71500e-04
 Reference value :  1.71501e-04
 Reference value :  1.71502e-04
 Reference value :  1.71503e-04
 Reference value :  1.71506e-04
 Reference value :  1.71507e-04
 Reference value :  1.71509e-04
 Reference value :  1.71515e-04
 Reference value :  1.71582e-04
 Reference value :  1.71750e-04
 Reference value :  1.71750e-04
 Reference value :  1.71751e-04
 Reference value :  1.71752e-04
 Reference value :  1.71753e-04
 Reference value :  1.71754e-04
 Reference value :  1.71757e-04
 Reference value :  1.71782e-04
 Reference value :  1.72000e-04
 Reference value :  1.72000e-04
 Reference value :  1.72000e-04
 Reference value :  1.72001e-04
 Reference value :  1.72002e-04
 Reference value :  1.72003e-04
 Reference value :  1.72005e-04
 Reference value :  1.72007e-04
 Reference value :  1.72011e-04
 Reference value :  1.72014e-04
 Reference value :  1.72017e-04
 Reference value :  1.72036e-04
 Reference value :  1.72250e-04
 Reference value :  1.72250e-04
 Reference value :  1.72251e-04
 Reference value :  1.72252e-04
 Reference value :  1.72253e-04
 Reference value :  1.72256e-04
 Reference value :  1.72287e-04
 Reference value :  1.72500e-04
 Reference value :  1.72500e-04
 Reference value :  1.72501e-04
 Reference value :  1.72501e-04
 Reference value :  1.72502e-04
 Reference value :  1.72503e-04
 Reference value :  1.72505e-04
 Reference value :  1.72506e-04
 Reference value :  1.72509e-04
 Reference value :  1.72515e-04
 Reference value :  1.72582e-04
 Reference value :  1.72750e-04
 Reference value :  1.72750e-04
 Reference value :  1.72750e-04
 Reference value :  1.72751e-04
 Reference value :  1.72752e-04
 Reference value :  1.72753e-04
 Reference value :  1.72754e-04
 Reference value :  1.72756e-04
 Reference value :  1.72770e-04
 Reference value :  1.72958e-04
 Reference value :  1.73000e-04
 Reference value :  1.73000e-04
 Reference value :  1.73001e-04
 Reference value :  1.73002e-04
 Reference value :  1.73002e-04
 Reference value :  1.73003e-04
 Reference value :  1.73005e-04
 Reference value :  1.73007e-04
 Reference value :  1.73011e-04
 Reference value :  1.73013e-04
 Reference value :  1.73015e-04
 Reference value :  1.73019e-04
 Reference value :  1.73029e-04
 Reference value :  1.73050e-04
 Reference value :  1.73135e-04
 Reference value :  1.73159e-04
 Reference value :  1.73250e-04
 Reference value :  1.73250e-04
 Reference value :  1.73250e-04
 Reference value :  1.73250e-04
 Reference value :  1.73251e-04
 Reference value :  1.73253e-04
 Reference value :  1.73253e-04
 Reference value :  1.73256e-04
 Reference value :  1.73265e-04
 Reference value :  1.73373e-04
 Reference value :  1.73500e-04
 Reference value :  1.73500e-04
 Reference value :  1.73500e-04
 Reference value :  1.73501e-04
 Reference value :  1.73502e-04
 Reference value :  1.73502e-04
 Reference value :  1.73503e-04
 Reference value :  1.73506e-04
 Reference value :  1.73507e-04
 Reference value :  1.73509e-04
 Reference value :  1.73520e-04
 Reference value :  1.73750e-04
 Reference value :  1.73750e-04
 Reference value :  1.73750e-04
 Reference value :  1.73751e-04
 Reference value :  1.73753e-04
 Reference value :  1.73754e-04
 Reference value :  1.73756e-04
 Reference value :  1.73764e-04
 Reference value :  1.73958e-04
 Reference value :  1.74000e-04
 Reference value :  1.74000e-04
 Reference value :  1.74001e-04
 Reference value :  1.74002e-04
 Reference value :  1.74003e-04
 Reference value :  1.74005e-04
 Reference value :  1.74008e-04
 Reference value :  1.74011e-04
 Reference value :  1.74014e-04
 Reference value :  1.74016e-04
 Reference value :  1.74024e-04
 Reference value :  1.74044e-04
 Reference value :  1.74062e-04
 Reference value :  1.74082e-04
 Reference value :  1.74097e-04
 Reference value :  1.74119e-04
 Reference value :  1.74220e-04
 Reference value :  1.74250e-04
 Reference value :  1.74250e-04
 Reference value :  1.74251e-04
 Reference value :  1.74252e-04
 Reference value :  1.74254e-04
 Reference value :  1.74257e-04
 Reference value :  1.74315e-04
 Reference value :  1.74500e-04
 Reference value :  1.74500e-04
 Reference value :  1.74500e-04
 Reference value :  1.74500e-04
 Reference value :  1.74502e-04
 Reference value :  1.74503e-04
 Reference value :  1.74505e-04
 Reference value :  1.74506e-04
 Reference value :  1.74508e-04
 Reference value :  1.74510e-04
 Reference value :  1.74515e-04
 Reference value :  1.74546e-04
 Reference value :  1.74750e-04
 Reference value :  1.74750e-04
 Reference value :  1.74750e-04
 Reference value :  1.74751e-04
 Reference value :  1.74753e-04
 Reference value :  1.74753e-04
 Reference value :  1.74754e-04
 Reference value :  1.74756e-04
 Reference value :  1.74760e-04
 Reference value :  1.74807e-04
 Reference value :  1.75000e-04
 Reference value :  1.75000e-04
 Reference value :  1.75001e-04
 Reference value :  1.75002e-04
 Reference value :  1.75003e-04
 Reference value :  1.75004e-04
 Reference value :  1.75006e-04
 Reference value :  1.75008e-04
 Reference value :  1.75011e-04
 Reference value :  1.75013e-04
 Reference value :  1.75015e-04
 Reference value :  1.75019e-04
 Reference value :  1.75034e-04
 Reference value :  1.75041e-04
 Reference value :  1.75049e-04
 Reference value :  1.75059e-04
 Reference value :  1.75082e-04
 Reference value :  1.75089e-04
 Reference value :  1.75107e-04
 Reference value :  1.75127e-04
 Reference value :  1.75223e-04
 Reference value :  1.75250e-04
 Reference value :  1.75250e-04
 Reference value :  1.75251e-04
 Reference value :  1.75252e-04
 Reference value :  1.75253e-04
 Reference value :  1.75254e-04
 Reference value :  1.75255e-04
 Reference value :  1.75259e-04
 Reference value :  1.75373e-04
 Reference value :  1.75500e-04
 Reference value :  1.75500e-04
 Reference value :  1.75501e-04
 Reference value :  1.75502e-04
 Reference value :  1.75503e-04
 Reference value :  1.75506e-04
 Reference value :  1.75508e-04
 Reference value :  1.75510e-04
 Reference value :  1.75515e-04
 Reference value :  1.75750e-04
 Reference value :  1.75750e-04
 Reference value :  1.75751e-04
 Reference value :  1.75751e-04
 Reference value :  1.75752e-04
 Reference value :  1.75753e-04
 Reference value :  1.75756e-04
 Reference value :  1.75782e-04
 Reference value :  1.76000e-04
 Reference value :  1.76000e-04
 Reference value :  1.76001e-04
 Reference value :  1.76002e-04
 Reference value :  1.76003e-04
 Reference value :  1.76005e-04
 Reference value :  1.76010e-04
 Reference value :  1.76013e-04
 Reference value :  1.76016e-04
 Reference value :  1.76028e-04
 Reference value :  1.76038e-04
 Reference value :  1.76052e-04
 Reference value :  1.76066e-04
 Reference value :  1.76111e-04
 Reference value :  1.76138e-04
 Reference value :  1.76184e-04
 Reference value :  1.76250e-04
 Reference value :  1.76250e-04
 Reference value :  1.76251e-04
 Reference value :  1.76253e-04
 Reference value :  1.76255e-04
 Reference value :  1.76262e-04
 Reference value :  1.76487e-04
 Reference value :  1.76500e-04
 Reference value :  1.76500e-04
 Reference value :  1.76501e-04
 Reference value :  1.76502e-04
 Reference value :  1.76503e-04
 Reference value :  1.76506e-04
 Reference value :  1.76507e-04
 Reference value :  1.76509e-04
 Reference value :  1.76512e-04
 Reference value :  1.76652e-04
 Reference value :  1.76750e-04
 Reference value :  1.76750e-04
 Reference value :  1.76751e-04
 Reference value :  1.76753e-04
 Reference value :  1.76754e-04
 Reference value :  1.76755e-04
 Reference value :  1.76760e-04
 Reference value :  1.76957e-04
 Reference value :  1.77000e-04
 Reference value :  1.77000e-04
 Reference value :  1.77001e-04
 Reference value :  1.77002e-04
 Reference value :  1.77004e-04
 Reference value :  1.77006e-04
 Reference value :  1.77011e-04
 Reference value :  1.77013e-04
 Reference value :  1.77015e-04
 Reference value :  1.77021e-04
 Reference value :  1.77030e-04
 Reference value :  1.77040e-04
 Reference value :  1.77102e-04
 Reference value :  1.77185e-04
 Reference value :  1.77250e-04
 Reference value :  1.77250e-04
 Reference value :  1.77250e-04
 Reference value :  1.77251e-04
 Reference value :  1.77253e-04
 Reference value :  1.77255e-04
 Reference value :  1.77259e-04
 Reference value :  1.77320e-04
 Reference value :  1.77500e-04
 Reference value :  1.77500e-04
 Reference value :  1.77500e-04
 Reference value :  1.77501e-04
 Reference value :  1.77502e-04
 Reference value :  1.77503e-04
 Reference value :  1.77506e-04
 Reference value :  1.77509e-04
 Reference value :  1.77520e-04
 Reference value :  1.77750e-04
 Reference value :  1.77750e-04
 Reference value :  1.77750e-04
 Reference value :  1.77751e-04
 Reference value :  1.77753e-04
 Reference value :  1.77754e-04
 Reference value :  1.77756e-04
 Reference value :  1.77764e-04
 Reference value :  1.78000e-04
 Reference value :  1.78000e-04
 Reference value :  1.78000e-04
 Reference value :  1.78001e-04
 Reference value :  1.78003e-04
 Reference value :  1.78005e-04
 Reference value :  1.78006e-04
 Reference value :  1.78009e-04
 Reference value :  1.78065e-04
 Reference value :  1.78250e-04
 Reference value :  1.78250e-04
 Reference value :  1.78250e-04
 Reference value :  1.78251e-04
 Reference value :  1.78252e-04
 Reference value :  1.78254e-04
 Reference value :  1.78256e-04
 Reference value :  1.78275e-04
No. of Data Rows : 25536
ngspice-44 done
