
Note: Compatibility modes selected: hs a


Circuit: ** sch_path: /home/ece/cace/sar-adc-using-sky130-pdk/runs/run_2025-09-12_21-06-01/parameters/dnl/run_2/sar_output_dnl.sch

option SCALE: Scale is set to 1e-06 for instance and model parameters
option SCALE: Scale is set to 1e-06 for instance and model parameters
option SCALE: Scale is set to 1e-06 for instance and model parameters
option SCALE: Scale is set to 1e-06 for instance and model parameters
Doing analysis at TEMP = 27.000000 and TNOM = 27.000000

Using KLU as Direct Linear Solver
Operating point simulation skipped by 'uic',
  now using transient initial conditions.
 Reference value :  1.00000e-12
 Reference value :  1.08400e-12
 Reference value :  1.68997e-12
 Reference value :  4.43715e-12
 Reference value :  2.08040e-11
 Reference value :  1.00000e-10
 Reference value :  1.38947e-10
 Reference value :  4.50526e-10
 Reference value :  9.80876e-10
 Reference value :  1.85247e-09
 Reference value :  3.19716e-09
 Reference value :  5.02955e-09
 Reference value :  6.06549e-09
 Reference value :  6.74562e-09
 Reference value :  8.09239e-09
 Reference value :  9.86376e-09
 Reference value :  1.08948e-08
 Reference value :  1.16386e-08
 Reference value :  1.31624e-08
 Reference value :  1.73491e-08
 Reference value :  2.50368e-08
 Reference value :  3.34651e-08
 Reference value :  4.26859e-08
 Reference value :  6.90569e-08
 Reference value :  2.11945e-07
 Reference value :  2.50110e-07
 Reference value :  2.50170e-07
 Reference value :  2.50208e-07
 Reference value :  2.50389e-07
 Reference value :  2.50957e-07
 Reference value :  2.51695e-07
 Reference value :  2.52676e-07
 Reference value :  2.53257e-07
 Reference value :  2.53738e-07
 Reference value :  2.54793e-07
 Reference value :  2.57478e-07
 Reference value :  2.64008e-07
 Reference value :  2.98136e-07
 Reference value :  5.00000e-07
 Reference value :  5.00070e-07
 Reference value :  5.00124e-07
 Reference value :  5.00338e-07
 Reference value :  5.00827e-07
 Reference value :  5.01575e-07
 Reference value :  5.02907e-07
 Reference value :  5.04017e-07
 Reference value :  5.06613e-07
 Reference value :  5.09008e-07
 Reference value :  5.11637e-07
 Reference value :  5.14501e-07
 Reference value :  5.22853e-07
 Reference value :  5.55019e-07
 Reference value :  7.50100e-07
 Reference value :  7.50200e-07
 Reference value :  7.50320e-07
 Reference value :  7.50688e-07
 Reference value :  7.51397e-07
 Reference value :  7.52994e-07
 Reference value :  7.53976e-07
 Reference value :  7.55035e-07
 Reference value :  7.56554e-07
 Reference value :  7.63369e-07
 Reference value :  8.53123e-07
 Reference value :  1.00003e-06
 Reference value :  1.00012e-06
 Reference value :  1.00034e-06
 Reference value :  1.00119e-06
 Reference value :  1.00201e-06
 Reference value :  1.00289e-06
 Reference value :  1.00450e-06
 Reference value :  1.00632e-06
 Reference value :  1.00996e-06
 Reference value :  1.01223e-06
 Reference value :  1.01525e-06
 Reference value :  1.01916e-06
 Reference value :  1.03639e-06
 Reference value :  1.04414e-06
 Reference value :  1.05949e-06
 Reference value :  1.06994e-06
 Reference value :  1.08099e-06
 Reference value :  1.09981e-06
 Reference value :  1.15359e-06
 Reference value :  1.25011e-06
 Reference value :  1.25020e-06
 Reference value :  1.25026e-06
 Reference value :  1.25069e-06
 Reference value :  1.25140e-06
 Reference value :  1.25230e-06
 Reference value :  1.25344e-06
 Reference value :  1.25595e-06
 Reference value :  1.26495e-06
 Reference value :  1.36941e-06
 Reference value :  1.50001e-06
 Reference value :  1.50007e-06
 Reference value :  1.50012e-06
 Reference value :  1.50022e-06
 Reference value :  1.50052e-06
 Reference value :  1.50119e-06
 Reference value :  1.50154e-06
 Reference value :  1.50235e-06
 Reference value :  1.50282e-06
 Reference value :  1.50388e-06
 Reference value :  1.50536e-06
 Reference value :  1.50598e-06
 Reference value :  1.50749e-06
 Reference value :  1.50925e-06
 Reference value :  1.51147e-06
 Reference value :  1.53257e-06
 Reference value :  1.75010e-06
 Reference value :  1.75017e-06
 Reference value :  1.75022e-06
 Reference value :  1.75045e-06
 Reference value :  1.75140e-06
 Reference value :  1.75299e-06
 Reference value :  1.75397e-06
 Reference value :  1.75502e-06
 Reference value :  1.75838e-06
 Reference value :  1.76753e-06
 Reference value :  2.00000e-06
 Reference value :  2.00010e-06
 Reference value :  2.00022e-06
 Reference value :  2.00083e-06
 Reference value :  2.00158e-06
 Reference value :  2.00290e-06
 Reference value :  2.00390e-06
 Reference value :  2.00484e-06
 Reference value :  2.00664e-06
 Reference value :  2.00933e-06
 Reference value :  2.01113e-06
 Reference value :  2.01270e-06
 Reference value :  2.01441e-06
 Reference value :  2.01625e-06
 Reference value :  2.02049e-06
 Reference value :  2.05401e-06
 Reference value :  2.15585e-06
 Reference value :  2.17748e-06
 Reference value :  2.19780e-06
 Reference value :  2.20819e-06
 Reference value :  2.22709e-06
 Reference value :  2.25013e-06
 Reference value :  2.25022e-06
 Reference value :  2.25069e-06
 Reference value :  2.25140e-06
 Reference value :  2.25299e-06
 Reference value :  2.25399e-06
 Reference value :  2.25524e-06
 Reference value :  2.25891e-06
 Reference value :  2.28695e-06
 Reference value :  2.30303e-06
 Reference value :  2.33682e-06
 Reference value :  2.35810e-06
 Reference value :  2.40259e-06
 Reference value :  2.45035e-06
 Reference value :  2.50007e-06
 Reference value :  2.50016e-06
 Reference value :  2.50052e-06
 Reference value :  2.50119e-06
 Reference value :  2.50194e-06
 Reference value :  2.50332e-06
 Reference value :  2.50534e-06
 Reference value :  2.50662e-06
 Reference value :  2.50836e-06
 Reference value :  2.51026e-06
 Reference value :  2.52266e-06
 Reference value :  2.58453e-06
 Reference value :  2.75011e-06
 Reference value :  2.75021e-06
 Reference value :  2.75032e-06
 Reference value :  2.75098e-06
 Reference value :  2.75186e-06
 Reference value :  2.75299e-06
 Reference value :  2.75344e-06
 Reference value :  2.75447e-06
 Reference value :  2.75579e-06
 Reference value :  2.75750e-06
 Reference value :  2.75963e-06
 Reference value :  2.77493e-06
 Reference value :  3.00000e-06
 Reference value :  3.00007e-06
 Reference value :  3.00012e-06
 Reference value :  3.00034e-06
 Reference value :  3.00083e-06
 Reference value :  3.00157e-06
 Reference value :  3.00241e-06
 Reference value :  3.00341e-06
 Reference value :  3.00438e-06
 Reference value :  3.00531e-06
 Reference value :  3.00749e-06
 Reference value :  3.00933e-06
 Reference value :  3.01025e-06
 Reference value :  3.01199e-06
 Reference value :  3.01357e-06
 Reference value :  3.01627e-06
 Reference value :  3.02068e-06
 Reference value :  3.02769e-06
 Reference value :  3.03656e-06
 Reference value :  3.04261e-06
 Reference value :  3.04452e-06
 Reference value :  3.05500e-06
 Reference value :  3.07699e-06
 Reference value :  3.15511e-06
 Reference value :  3.25013e-06
 Reference value :  3.25021e-06
 Reference value :  3.25045e-06
 Reference value :  3.25140e-06
 Reference value :  3.25299e-06
 Reference value :  3.25399e-06
 Reference value :  3.25598e-06
 Reference value :  3.26162e-06
 Reference value :  3.28674e-06
 Reference value :  3.50000e-06
 Reference value :  3.50007e-06
 Reference value :  3.50012e-06
 Reference value :  3.50022e-06
 Reference value :  3.50083e-06
 Reference value :  3.50158e-06
 Reference value :  3.50242e-06
 Reference value :  3.50290e-06
 Reference value :  3.50399e-06
 Reference value :  3.50553e-06
 Reference value :  3.50616e-06
 Reference value :  3.50771e-06
 Reference value :  3.51086e-06
 Reference value :  3.52995e-06
 Reference value :  3.65747e-06
 Reference value :  3.75013e-06
 Reference value :  3.75021e-06
 Reference value :  3.75032e-06
 Reference value :  3.75069e-06
 Reference value :  3.75140e-06
 Reference value :  3.75229e-06
 Reference value :  3.75344e-06
 Reference value :  3.75448e-06
 Reference value :  3.75580e-06
 Reference value :  3.76364e-06
 Reference value :  3.85808e-06
 Reference value :  4.00003e-06
 Reference value :  4.00012e-06
 Reference value :  4.00034e-06
 Reference value :  4.00083e-06
 Reference value :  4.00158e-06
 Reference value :  4.00289e-06
 Reference value :  4.00450e-06
 Reference value :  4.00632e-06
 Reference value :  4.00997e-06
 Reference value :  4.01223e-06
 Reference value :  4.01428e-06
 Reference value :  4.01625e-06
 Reference value :  4.02075e-06
 Reference value :  4.03488e-06
 Reference value :  4.04861e-06
 Reference value :  4.06263e-06
 Reference value :  4.08372e-06
 Reference value :  4.12500e-06
 Reference value :  4.14872e-06
 Reference value :  4.16245e-06
 Reference value :  4.18699e-06
 Reference value :  4.25010e-06
 Reference value :  4.25017e-06
 Reference value :  4.25022e-06
 Reference value :  4.25045e-06
 Reference value :  4.25140e-06
 Reference value :  4.25299e-06
 Reference value :  4.25460e-06
 Reference value :  4.25888e-06
 Reference value :  4.28666e-06
 Reference value :  4.50001e-06
 Reference value :  4.50011e-06
 Reference value :  4.50034e-06
 Reference value :  4.50083e-06
 Reference value :  4.50158e-06
 Reference value :  4.50290e-06
 Reference value :  4.50474e-06
 Reference value :  4.50616e-06
 Reference value :  4.50771e-06
 Reference value :  4.51086e-06
 Reference value :  4.54743e-06
 Reference value :  4.75010e-06
 Reference value :  4.75013e-06
 Reference value :  4.75020e-06
 Reference value :  4.75045e-06
 Reference value :  4.75140e-06
 Reference value :  4.75299e-06
 Reference value :  4.75448e-06
 Reference value :  4.75661e-06
 Reference value :  4.78244e-06
 Reference value :  5.00003e-06
 Reference value :  5.00016e-06
 Reference value :  5.00052e-06
 Reference value :  5.00158e-06
 Reference value :  5.00242e-06
 Reference value :  5.00341e-06
 Reference value :  5.00500e-06
 Reference value :  5.00709e-06
 Reference value :  5.01120e-06
 Reference value :  5.01323e-06
 Reference value :  5.01524e-06
 Reference value :  5.01737e-06
 Reference value :  5.02393e-06
 Reference value :  5.03275e-06
 Reference value :  5.04512e-06
 Reference value :  5.04974e-06
 Reference value :  5.06084e-06
 Reference value :  5.07905e-06
 Reference value :  5.16757e-06
 Reference value :  5.25011e-06
 Reference value :  5.25020e-06
 Reference value :  5.25032e-06
 Reference value :  5.25098e-06
 Reference value :  5.25140e-06
 Reference value :  5.25229e-06
 Reference value :  5.25343e-06
 Reference value :  5.25455e-06
 Reference value :  5.25595e-06
 Reference value :  5.26148e-06
 Reference value :  5.28576e-06
 Reference value :  5.48000e-06
 Reference value :  5.50003e-06
 Reference value :  5.50010e-06
 Reference value :  5.50016e-06
 Reference value :  5.50034e-06
 Reference value :  5.50083e-06
 Reference value :  5.50154e-06
 Reference value :  5.50235e-06
 Reference value :  5.50333e-06
 Reference value :  5.50464e-06
 Reference value :  5.50598e-06
 Reference value :  5.50749e-06
 Reference value :  5.50924e-06
 Reference value :  5.51143e-06
 Reference value :  5.52223e-06
 Reference value :  5.57989e-06
 Reference value :  5.75011e-06
 Reference value :  5.75020e-06
 Reference value :  5.75032e-06
 Reference value :  5.75069e-06
 Reference value :  5.75140e-06
 Reference value :  5.75229e-06
 Reference value :  5.75299e-06
 Reference value :  5.75397e-06
 Reference value :  5.75448e-06
 Reference value :  5.75579e-06
 Reference value :  5.75750e-06
 Reference value :  5.75963e-06
 Reference value :  5.76364e-06
 Reference value :  5.77485e-06
 Reference value :  5.81969e-06
 Reference value :  5.99904e-06
 Reference value :  6.00001e-06
 Reference value :  6.00007e-06
 Reference value :  6.00011e-06
 Reference value :  6.00016e-06
 Reference value :  6.00034e-06
 Reference value :  6.00083e-06
 Reference value :  6.00158e-06
 Reference value :  6.00242e-06
 Reference value :  6.00290e-06
 Reference value :  6.00390e-06
 Reference value :  6.00484e-06
 Reference value :  6.00664e-06
 Reference value :  6.00758e-06
 Reference value :  6.01016e-06
 Reference value :  6.01188e-06
 Reference value :  6.01349e-06
 Reference value :  6.01628e-06
 Reference value :  6.01876e-06
 Reference value :  6.02255e-06
 Reference value :  6.02458e-06
 Reference value :  6.02867e-06
 Reference value :  6.03754e-06
 Reference value :  6.16850e-06
 Reference value :  6.25013e-06
 Reference value :  6.25022e-06
 Reference value :  6.25069e-06
 Reference value :  6.25140e-06
 Reference value :  6.25299e-06
 Reference value :  6.25460e-06
 Reference value :  6.25887e-06
 Reference value :  6.37219e-06
 Reference value :  6.50003e-06
 Reference value :  6.50012e-06
 Reference value :  6.50052e-06
 Reference value :  6.50158e-06
 Reference value :  6.50290e-06
 Reference value :  6.50474e-06
 Reference value :  6.50616e-06
 Reference value :  6.50865e-06
 Reference value :  6.52955e-06
 Reference value :  6.75013e-06
 Reference value :  6.75026e-06
 Reference value :  6.75098e-06
 Reference value :  6.75229e-06
 Reference value :  6.75344e-06
 Reference value :  6.75448e-06
 Reference value :  6.75660e-06
 Reference value :  6.78226e-06
 Reference value :  7.00001e-06
 Reference value :  7.00010e-06
 Reference value :  7.00022e-06
 Reference value :  7.00083e-06
 Reference value :  7.00158e-06
 Reference value :  7.00289e-06
 Reference value :  7.00450e-06
 Reference value :  7.00554e-06
 Reference value :  7.00847e-06
 Reference value :  7.01120e-06
 Reference value :  7.01223e-06
 Reference value :  7.01428e-06
 Reference value :  7.01625e-06
 Reference value :  7.02074e-06
 Reference value :  7.04599e-06
 Reference value :  7.21502e-06
 Reference value :  7.25017e-06
 Reference value :  7.25022e-06
 Reference value :  7.25045e-06
 Reference value :  7.25098e-06
 Reference value :  7.25140e-06
 Reference value :  7.25229e-06
 Reference value :  7.25345e-06
 Reference value :  7.25461e-06
 Reference value :  7.25741e-06
 Reference value :  7.26523e-06
 Reference value :  7.31554e-06
 Reference value :  7.50000e-06
 Reference value :  7.50007e-06
 Reference value :  7.50012e-06
 Reference value :  7.50034e-06
 Reference value :  7.50083e-06
 Reference value :  7.50158e-06
 Reference value :  7.50242e-06
 Reference value :  7.50290e-06
 Reference value :  7.50399e-06
 Reference value :  7.50553e-06
 Reference value :  7.50616e-06
 Reference value :  7.50771e-06
 Reference value :  7.51087e-06
 Reference value :  7.52046e-06
 Reference value :  7.58187e-06
 Reference value :  7.75011e-06
 Reference value :  7.75020e-06
 Reference value :  7.75032e-06
 Reference value :  7.75069e-06
 Reference value :  7.75139e-06
 Reference value :  7.75299e-06
 Reference value :  7.75344e-06
 Reference value :  7.75447e-06
 Reference value :  7.75579e-06
 Reference value :  7.76027e-06
 Reference value :  7.78233e-06
 Reference value :  7.95724e-06
 Reference value :  8.00003e-06
 Reference value :  8.00010e-06
 Reference value :  8.00016e-06
 Reference value :  8.00052e-06
 Reference value :  8.00119e-06
 Reference value :  8.00158e-06
 Reference value :  8.00242e-06
 Reference value :  8.00341e-06
 Reference value :  8.00503e-06
 Reference value :  8.00639e-06
 Reference value :  8.00795e-06
 Reference value :  8.00982e-06
 Reference value :  8.02264e-06
 Reference value :  8.23262e-06
 Reference value :  8.25013e-06
 Reference value :  8.25022e-06
 Reference value :  8.25070e-06
 Reference value :  8.25139e-06
 Reference value :  8.25228e-06
 Reference value :  8.25364e-06
 Reference value :  8.25535e-06
 Reference value :  8.25767e-06
 Reference value :  8.26625e-06
 Reference value :  8.32168e-06
 Reference value :  8.50000e-06
 Reference value :  8.50000e-06
 Reference value :  8.50000e-06
 Reference value :  8.50000e-06
 Reference value :  8.50002e-06
 Reference value :  8.50008e-06
 Reference value :  8.50011e-06
 Reference value :  8.50014e-06
 Reference value :  8.50027e-06
 Reference value :  8.50068e-06
 Reference value :  8.50158e-06
 Reference value :  8.50197e-06
 Reference value :  8.50292e-06
 Reference value :  8.50401e-06
 Reference value :  8.50446e-06
 Reference value :  8.50554e-06
 Reference value :  8.51197e-06
 Reference value :  8.52239e-06
 Reference value :  8.52626e-06
 Reference value :  8.52915e-06
 Reference value :  8.53174e-06
 Reference value :  8.53555e-06
 Reference value :  8.54132e-06
 Reference value :  8.56528e-06
 Reference value :  8.68838e-06
 Reference value :  8.75017e-06
 Reference value :  8.75026e-06
 Reference value :  8.75098e-06
 Reference value :  8.75229e-06
 Reference value :  8.75395e-06
 Reference value :  8.75589e-06
 Reference value :  8.76472e-06
 Reference value :  8.97101e-06
 Reference value :  9.00007e-06
 Reference value :  9.00012e-06
 Reference value :  9.00034e-06
 Reference value :  9.00083e-06
 Reference value :  9.00158e-06
 Reference value :  9.00242e-06
 Reference value :  9.00289e-06
 Reference value :  9.00397e-06
 Reference value :  9.00550e-06
 Reference value :  9.00655e-06
 Reference value :  9.00902e-06
 Reference value :  9.01151e-06
 Reference value :  9.01602e-06
 Reference value :  9.08007e-06
 Reference value :  9.25013e-06
 Reference value :  9.25022e-06
 Reference value :  9.25069e-06
 Reference value :  9.25186e-06
 Reference value :  9.25344e-06
 Reference value :  9.25447e-06
 Reference value :  9.25578e-06
 Reference value :  9.26352e-06
 Reference value :  9.35652e-06
 Reference value :  9.50003e-06
 Reference value :  9.50011e-06
 Reference value :  9.50022e-06
 Reference value :  9.50083e-06
 Reference value :  9.50158e-06
 Reference value :  9.50289e-06
 Reference value :  9.50450e-06
 Reference value :  9.50554e-06
 Reference value :  9.50845e-06
 Reference value :  9.51119e-06
 Reference value :  9.51324e-06
 Reference value :  9.51525e-06
 Reference value :  9.51917e-06
 Reference value :  9.52895e-06
 Reference value :  9.54444e-06
 Reference value :  9.56008e-06
 Reference value :  9.57081e-06
 Reference value :  9.58171e-06
 Reference value :  9.60034e-06
 Reference value :  9.69680e-06
 Reference value :  9.75013e-06
 Reference value :  9.75021e-06
 Reference value :  9.75045e-06
 Reference value :  9.75140e-06
 Reference value :  9.75229e-06
 Reference value :  9.75343e-06
 Reference value :  9.75455e-06
 Reference value :  9.75594e-06
 Reference value :  9.76490e-06
 Reference value :  9.81311e-06
 Reference value :  1.00000e-05
 Reference value :  1.00001e-05
 Reference value :  1.00002e-05
 Reference value :  1.00008e-05
 Reference value :  1.00015e-05
 Reference value :  1.00028e-05
 Reference value :  1.00046e-05
 Reference value :  1.00066e-05
 Reference value :  1.00084e-05
 Reference value :  1.00114e-05
 Reference value :  1.00475e-05
 Reference value :  1.02501e-05
 Reference value :  1.02502e-05
 Reference value :  1.02507e-05
 Reference value :  1.02514e-05
 Reference value :  1.02523e-05
 Reference value :  1.02530e-05
 Reference value :  1.02534e-05
 Reference value :  1.02545e-05
 Reference value :  1.02558e-05
 Reference value :  1.02575e-05
 Reference value :  1.02596e-05
 Reference value :  1.02637e-05
 Reference value :  1.02749e-05
 Reference value :  1.03798e-05
 Reference value :  1.05000e-05
 Reference value :  1.05001e-05
 Reference value :  1.05002e-05
 Reference value :  1.05003e-05
 Reference value :  1.05008e-05
 Reference value :  1.05016e-05
 Reference value :  1.05024e-05
 Reference value :  1.05034e-05
 Reference value :  1.05044e-05
 Reference value :  1.05053e-05
 Reference value :  1.05066e-05
 Reference value :  1.05076e-05
 Reference value :  1.05084e-05
 Reference value :  1.05102e-05
 Reference value :  1.05119e-05
 Reference value :  1.05145e-05
 Reference value :  1.05175e-05
 Reference value :  1.05319e-05
 Reference value :  1.06040e-05
 Reference value :  1.06768e-05
 Reference value :  1.07159e-05
 Reference value :  1.07403e-05
 Reference value :  1.07501e-05
 Reference value :  1.07502e-05
 Reference value :  1.07503e-05
 Reference value :  1.07510e-05
 Reference value :  1.07519e-05
 Reference value :  1.07530e-05
 Reference value :  1.07540e-05
 Reference value :  1.07552e-05
 Reference value :  1.07652e-05
 Reference value :  1.08084e-05
 Reference value :  1.08316e-05
 Reference value :  1.08687e-05
 Reference value :  1.08928e-05
 Reference value :  1.09405e-05
 Reference value :  1.10000e-05
 Reference value :  1.10001e-05
 Reference value :  1.10002e-05
 Reference value :  1.10008e-05
 Reference value :  1.10015e-05
 Reference value :  1.10028e-05
 Reference value :  1.10046e-05
 Reference value :  1.10060e-05
 Reference value :  1.10075e-05
 Reference value :  1.10102e-05
 Reference value :  1.10322e-05
 Reference value :  1.12501e-05
 Reference value :  1.12502e-05
 Reference value :  1.12504e-05
 Reference value :  1.12510e-05
 Reference value :  1.12519e-05
 Reference value :  1.12530e-05
 Reference value :  1.12534e-05
 Reference value :  1.12545e-05
 Reference value :  1.12566e-05
 Reference value :  1.12596e-05
 Reference value :  1.12747e-05
 Reference value :  1.14970e-05
 Reference value :  1.15001e-05
 Reference value :  1.15002e-05
 Reference value :  1.15005e-05
 Reference value :  1.15012e-05
 Reference value :  1.15020e-05
 Reference value :  1.15029e-05
 Reference value :  1.15039e-05
 Reference value :  1.15048e-05
 Reference value :  1.15066e-05
 Reference value :  1.15075e-05
 Reference value :  1.15093e-05
 Reference value :  1.15102e-05
 Reference value :  1.15120e-05
 Reference value :  1.15136e-05
 Reference value :  1.15153e-05
 Reference value :  1.15172e-05
 Reference value :  1.15239e-05
 Reference value :  1.15273e-05
 Reference value :  1.15350e-05
 Reference value :  1.15379e-05
 Reference value :  1.15423e-05
 Reference value :  1.15516e-05
 Reference value :  1.15683e-05
 Reference value :  1.16276e-05
 Reference value :  1.17240e-05
 Reference value :  1.17501e-05
 Reference value :  1.17502e-05
 Reference value :  1.17503e-05
 Reference value :  1.17510e-05
 Reference value :  1.17519e-05
 Reference value :  1.17530e-05
 Reference value :  1.17540e-05
 Reference value :  1.17552e-05
 Reference value :  1.17616e-05
 Reference value :  1.18152e-05
 Reference value :  1.20000e-05
 Reference value :  1.20001e-05
 Reference value :  1.20001e-05
 Reference value :  1.20003e-05
 Reference value :  1.20008e-05
 Reference value :  1.20020e-05
 Reference value :  1.20029e-05
 Reference value :  1.20040e-05
 Reference value :  1.20062e-05
 Reference value :  1.20087e-05
 Reference value :  1.20155e-05
 Reference value :  1.20296e-05
 Reference value :  1.22501e-05
 Reference value :  1.22502e-05
 Reference value :  1.22504e-05
 Reference value :  1.22514e-05
 Reference value :  1.22530e-05
 Reference value :  1.22534e-05
 Reference value :  1.22545e-05
 Reference value :  1.22558e-05
 Reference value :  1.22603e-05
 Reference value :  1.22823e-05
 Reference value :  1.24572e-05
 Reference value :  1.25000e-05
 Reference value :  1.25001e-05
 Reference value :  1.25001e-05
 Reference value :  1.25002e-05
 Reference value :  1.25008e-05
 Reference value :  1.25016e-05
 Reference value :  1.25024e-05
 Reference value :  1.25034e-05
 Reference value :  1.25045e-05
 Reference value :  1.25055e-05
 Reference value :  1.25085e-05
 Reference value :  1.25112e-05
 Reference value :  1.25132e-05
 Reference value :  1.25152e-05
 Reference value :  1.25191e-05
 Reference value :  1.25286e-05
 Reference value :  1.25424e-05
 Reference value :  1.25497e-05
 Reference value :  1.25648e-05
 Reference value :  1.25786e-05
 Reference value :  1.26141e-05
 Reference value :  1.26391e-05
 Reference value :  1.26573e-05
 Reference value :  1.26872e-05
 Reference value :  1.27501e-05
 Reference value :  1.27502e-05
 Reference value :  1.27503e-05
 Reference value :  1.27507e-05
 Reference value :  1.27514e-05
 Reference value :  1.27530e-05
 Reference value :  1.27540e-05
 Reference value :  1.27552e-05
 Reference value :  1.27589e-05
 Reference value :  1.27867e-05
 Reference value :  1.30000e-05
 Reference value :  1.30001e-05
 Reference value :  1.30001e-05
 Reference value :  1.30003e-05
 Reference value :  1.30012e-05
 Reference value :  1.30020e-05
 Reference value :  1.30029e-05
 Reference value :  1.30040e-05
 Reference value :  1.30055e-05
 Reference value :  1.30062e-05
 Reference value :  1.30077e-05
 Reference value :  1.30096e-05
 Reference value :  1.30155e-05
 Reference value :  1.30468e-05
 Reference value :  1.32501e-05
 Reference value :  1.32502e-05
 Reference value :  1.32503e-05
 Reference value :  1.32507e-05
 Reference value :  1.32514e-05
 Reference value :  1.32530e-05
 Reference value :  1.32540e-05
 Reference value :  1.32550e-05
 Reference value :  1.32566e-05
 Reference value :  1.32823e-05
 Reference value :  1.35000e-05
 Reference value :  1.35001e-05
 Reference value :  1.35002e-05
 Reference value :  1.35008e-05
 Reference value :  1.35016e-05
 Reference value :  1.35029e-05
 Reference value :  1.35045e-05
 Reference value :  1.35055e-05
 Reference value :  1.35085e-05
 Reference value :  1.35112e-05
 Reference value :  1.35132e-05
 Reference value :  1.35152e-05
 Reference value :  1.35191e-05
 Reference value :  1.35329e-05
 Reference value :  1.35446e-05
 Reference value :  1.35536e-05
 Reference value :  1.35660e-05
 Reference value :  1.36012e-05
 Reference value :  1.37501e-05
 Reference value :  1.37502e-05
 Reference value :  1.37502e-05
 Reference value :  1.37507e-05
 Reference value :  1.37514e-05
 Reference value :  1.37530e-05
 Reference value :  1.37539e-05
 Reference value :  1.37559e-05
 Reference value :  1.37614e-05
 Reference value :  1.37854e-05
 Reference value :  1.39769e-05
 Reference value :  1.40000e-05
 Reference value :  1.40001e-05
 Reference value :  1.40001e-05
 Reference value :  1.40002e-05
 Reference value :  1.40005e-05
 Reference value :  1.40012e-05
 Reference value :  1.40019e-05
 Reference value :  1.40028e-05
 Reference value :  1.40046e-05
 Reference value :  1.40060e-05
 Reference value :  1.40075e-05
 Reference value :  1.40103e-05
 Reference value :  1.40222e-05
 Reference value :  1.40795e-05
 Reference value :  1.42501e-05
 Reference value :  1.42502e-05
 Reference value :  1.42503e-05
 Reference value :  1.42507e-05
 Reference value :  1.42514e-05
 Reference value :  1.42530e-05
 Reference value :  1.42534e-05
 Reference value :  1.42545e-05
 Reference value :  1.42558e-05
 Reference value :  1.42584e-05
 Reference value :  1.42610e-05
 Reference value :  1.42748e-05
 Reference value :  1.43794e-05
 Reference value :  1.45000e-05
 Reference value :  1.45001e-05
 Reference value :  1.45001e-05
 Reference value :  1.45003e-05
 Reference value :  1.45008e-05
 Reference value :  1.45016e-05
 Reference value :  1.45029e-05
 Reference value :  1.45039e-05
 Reference value :  1.45048e-05
 Reference value :  1.45066e-05
 Reference value :  1.45076e-05
 Reference value :  1.45093e-05
 Reference value :  1.45102e-05
 Reference value :  1.45119e-05
 Reference value :  1.45144e-05
 Reference value :  1.45173e-05
 Reference value :  1.45207e-05
 Reference value :  1.45232e-05
 Reference value :  1.45278e-05
 Reference value :  1.45596e-05
 Reference value :  1.47437e-05
 Reference value :  1.47501e-05
 Reference value :  1.47502e-05
 Reference value :  1.47504e-05
 Reference value :  1.47514e-05
 Reference value :  1.47530e-05
 Reference value :  1.47540e-05
 Reference value :  1.47560e-05
 Reference value :  1.47652e-05
 Reference value :  1.48724e-05
 Reference value :  1.50001e-05
 Reference value :  1.50001e-05
 Reference value :  1.50002e-05
 Reference value :  1.50005e-05
 Reference value :  1.50012e-05
 Reference value :  1.50020e-05
 Reference value :  1.50029e-05
 Reference value :  1.50040e-05
 Reference value :  1.50062e-05
 Reference value :  1.50077e-05
 Reference value :  1.50096e-05
 Reference value :  1.50155e-05
 Reference value :  1.50471e-05
 Reference value :  1.52501e-05
 Reference value :  1.52502e-05
 Reference value :  1.52503e-05
 Reference value :  1.52510e-05
 Reference value :  1.52514e-05
 Reference value :  1.52523e-05
 Reference value :  1.52534e-05
 Reference value :  1.52545e-05
 Reference value :  1.52558e-05
 Reference value :  1.52603e-05
 Reference value :  1.53069e-05
 Reference value :  1.55008e-05
 Reference value :  1.55023e-05
 Reference value :  1.55030e-05
 Reference value :  1.55045e-05
 Reference value :  1.55056e-05
 Reference value :  1.55080e-05
 Reference value :  1.55093e-05
 Reference value :  1.55120e-05
 Reference value :  1.55139e-05
 Reference value :  1.55159e-05
 Reference value :  1.55201e-05
 Reference value :  1.55383e-05
 Reference value :  1.56832e-05
 Reference value :  1.57501e-05
 Reference value :  1.57502e-05
 Reference value :  1.57507e-05
 Reference value :  1.57514e-05
 Reference value :  1.57530e-05
 Reference value :  1.57539e-05
 Reference value :  1.57551e-05
 Reference value :  1.57586e-05
 Reference value :  1.57837e-05
 Reference value :  1.60000e-05
 Reference value :  1.60001e-05
 Reference value :  1.60001e-05
 Reference value :  1.60003e-05
 Reference value :  1.60008e-05
 Reference value :  1.60016e-05
 Reference value :  1.60029e-05
 Reference value :  1.60040e-05
 Reference value :  1.60055e-05
 Reference value :  1.60069e-05
 Reference value :  1.60086e-05
 Reference value :  1.60155e-05
 Reference value :  1.60803e-05
 Reference value :  1.62501e-05
 Reference value :  1.62502e-05
 Reference value :  1.62503e-05
 Reference value :  1.62507e-05
 Reference value :  1.62514e-05
 Reference value :  1.62523e-05
 Reference value :  1.62534e-05
 Reference value :  1.62545e-05
 Reference value :  1.62558e-05
 Reference value :  1.62603e-05
 Reference value :  1.62825e-05
 Reference value :  1.64592e-05
 Reference value :  1.65000e-05
 Reference value :  1.65001e-05
 Reference value :  1.65002e-05
 Reference value :  1.65008e-05
 Reference value :  1.65016e-05
 Reference value :  1.65029e-05
 Reference value :  1.65040e-05
 Reference value :  1.65050e-05
 Reference value :  1.65064e-05
 Reference value :  1.65079e-05
 Reference value :  1.65118e-05
 Reference value :  1.65366e-05
 Reference value :  1.67501e-05
 Reference value :  1.67502e-05
 Reference value :  1.67502e-05
 Reference value :  1.67504e-05
 Reference value :  1.67510e-05
 Reference value :  1.67519e-05
 Reference value :  1.67530e-05
 Reference value :  1.67553e-05
 Reference value :  1.67577e-05
 Reference value :  1.67749e-05
 Reference value :  1.70000e-05
 Reference value :  1.70000e-05
 Reference value :  1.70000e-05
 Reference value :  1.70000e-05
 Reference value :  1.70001e-05
 Reference value :  1.70001e-05
 Reference value :  1.70004e-05
 Reference value :  1.70016e-05
 Reference value :  1.70029e-05
 Reference value :  1.70045e-05
 Reference value :  1.70062e-05
 Reference value :  1.70173e-05
 Reference value :  1.70224e-05
 Reference value :  1.70263e-05
 Reference value :  1.70291e-05
 Reference value :  1.70317e-05
 Reference value :  1.70356e-05
 Reference value :  1.70413e-05
 Reference value :  1.70508e-05
 Reference value :  1.70895e-05
 Reference value :  1.71405e-05
 Reference value :  1.72501e-05
 Reference value :  1.72501e-05
 Reference value :  1.72502e-05
 Reference value :  1.72502e-05
 Reference value :  1.72504e-05
 Reference value :  1.72510e-05
 Reference value :  1.72514e-05
 Reference value :  1.72523e-05
 Reference value :  1.72534e-05
 Reference value :  1.72545e-05
 Reference value :  1.72573e-05
 Reference value :  1.72647e-05
 Reference value :  1.73112e-05
 Reference value :  1.75000e-05
 Reference value :  1.75001e-05
 Reference value :  1.75002e-05
 Reference value :  1.75005e-05
 Reference value :  1.75012e-05
 Reference value :  1.75020e-05
 Reference value :  1.75029e-05
 Reference value :  1.75040e-05
 Reference value :  1.75065e-05
 Reference value :  1.75090e-05
 Reference value :  1.75115e-05
 Reference value :  1.75141e-05
 Reference value :  1.75180e-05
 Reference value :  1.75361e-05
 Reference value :  1.77501e-05
 Reference value :  1.77502e-05
 Reference value :  1.77503e-05
 Reference value :  1.77507e-05
 Reference value :  1.77514e-05
 Reference value :  1.77530e-05
 Reference value :  1.77540e-05
 Reference value :  1.77550e-05
 Reference value :  1.77558e-05
 Reference value :  1.77602e-05
 Reference value :  1.78069e-05
 Reference value :  1.80000e-05
 Reference value :  1.80007e-05
 Reference value :  1.80030e-05
 Reference value :  1.80044e-05
 Reference value :  1.80050e-05
 Reference value :  1.80062e-05
 Reference value :  1.80095e-05
 Reference value :  1.80121e-05
 Reference value :  1.80139e-05
 Reference value :  1.80158e-05
 Reference value :  1.80199e-05
 Reference value :  1.80441e-05
 Reference value :  1.80539e-05
 Reference value :  1.80686e-05
 Reference value :  1.80786e-05
 Reference value :  1.80985e-05
 Reference value :  1.82048e-05
 Reference value :  1.82502e-05
 Reference value :  1.82503e-05
 Reference value :  1.82507e-05
 Reference value :  1.82514e-05
 Reference value :  1.82530e-05
 Reference value :  1.82539e-05
 Reference value :  1.82559e-05
 Reference value :  1.82615e-05
 Reference value :  1.82846e-05
 Reference value :  1.84700e-05
 Reference value :  1.85000e-05
 Reference value :  1.85001e-05
 Reference value :  1.85002e-05
 Reference value :  1.85008e-05
 Reference value :  1.85015e-05
 Reference value :  1.85023e-05
 Reference value :  1.85028e-05
 Reference value :  1.85039e-05
 Reference value :  1.85054e-05
 Reference value :  1.85060e-05
 Reference value :  1.85075e-05
 Reference value :  1.85092e-05
 Reference value :  1.85103e-05
 Reference value :  1.85167e-05
 Reference value :  1.85474e-05
 Reference value :  1.87501e-05
 Reference value :  1.87502e-05
 Reference value :  1.87502e-05
 Reference value :  1.87503e-05
 Reference value :  1.87510e-05
 Reference value :  1.87519e-05
 Reference value :  1.87530e-05
 Reference value :  1.87534e-05
 Reference value :  1.87545e-05
 Reference value :  1.87558e-05
 Reference value :  1.87583e-05
 Reference value :  1.87610e-05
 Reference value :  1.87892e-05
 Reference value :  1.90000e-05
 Reference value :  1.90001e-05
 Reference value :  1.90002e-05
 Reference value :  1.90008e-05
 Reference value :  1.90016e-05
 Reference value :  1.90029e-05
 Reference value :  1.90044e-05
 Reference value :  1.90059e-05
 Reference value :  1.90084e-05
 Reference value :  1.90102e-05
 Reference value :  1.90119e-05
 Reference value :  1.90136e-05
 Reference value :  1.90154e-05
 Reference value :  1.90175e-05
 Reference value :  1.90318e-05
 Reference value :  1.91037e-05
 Reference value :  1.91747e-05
 Reference value :  1.91966e-05
 Reference value :  1.92426e-05
 Reference value :  1.92502e-05
 Reference value :  1.92503e-05
 Reference value :  1.92507e-05
 Reference value :  1.92514e-05
 Reference value :  1.92523e-05
 Reference value :  1.92535e-05
 Reference value :  1.92546e-05
 Reference value :  1.92560e-05
 Reference value :  1.92616e-05
 Reference value :  1.92867e-05
 Reference value :  1.93428e-05
 Reference value :  1.93864e-05
 Reference value :  1.94144e-05
 Reference value :  1.94425e-05
 Reference value :  1.94982e-05
 Reference value :  1.95000e-05
 Reference value :  1.95001e-05
 Reference value :  1.95003e-05
 Reference value :  1.95012e-05
 Reference value :  1.95019e-05
 Reference value :  1.95028e-05
 Reference value :  1.95038e-05
 Reference value :  1.95059e-05
 Reference value :  1.95074e-05
 Reference value :  1.95092e-05
 Reference value :  1.95102e-05
 Reference value :  1.95168e-05
 Reference value :  1.95858e-05
 Reference value :  1.97501e-05
 Reference value :  1.97502e-05
 Reference value :  1.97503e-05
 Reference value :  1.97510e-05
 Reference value :  1.97519e-05
 Reference value :  1.97530e-05
 Reference value :  1.97534e-05
 Reference value :  1.97545e-05
 Reference value :  1.97558e-05
 Reference value :  1.97583e-05
 Reference value :  1.97636e-05
 Reference value :  1.98187e-05
 Reference value :  2.00000e-05
 Reference value :  2.00001e-05
 Reference value :  2.00002e-05
 Reference value :  2.00005e-05
 Reference value :  2.00016e-05
 Reference value :  2.00029e-05
 Reference value :  2.00039e-05
 Reference value :  2.00048e-05
 Reference value :  2.00075e-05
 Reference value :  2.00102e-05
 Reference value :  2.00120e-05
 Reference value :  2.00136e-05
 Reference value :  2.00163e-05
 Reference value :  2.00206e-05
 Reference value :  2.00274e-05
 Reference value :  2.00344e-05
 Reference value :  2.00370e-05
 Reference value :  2.00413e-05
 Reference value :  2.00501e-05
 Reference value :  2.00655e-05
 Reference value :  2.01215e-05
 Reference value :  2.02501e-05
 Reference value :  2.02502e-05
 Reference value :  2.02502e-05
 Reference value :  2.02507e-05
 Reference value :  2.02514e-05
 Reference value :  2.02530e-05
 Reference value :  2.02540e-05
 Reference value :  2.02552e-05
 Reference value :  2.02589e-05
 Reference value :  2.02866e-05
 Reference value :  2.05000e-05
 Reference value :  2.05002e-05
 Reference value :  2.05009e-05
 Reference value :  2.05019e-05
 Reference value :  2.05035e-05
 Reference value :  2.05058e-05
 Reference value :  2.05106e-05
 Reference value :  2.05313e-05
 Reference value :  2.07501e-05
 Reference value :  2.07502e-05
 Reference value :  2.07503e-05
 Reference value :  2.07514e-05
 Reference value :  2.07530e-05
 Reference value :  2.07540e-05
 Reference value :  2.07558e-05
 Reference value :  2.07698e-05
 Reference value :  2.10000e-05
 Reference value :  2.10001e-05
 Reference value :  2.10002e-05
 Reference value :  2.10008e-05
 Reference value :  2.10020e-05
 Reference value :  2.10034e-05
 Reference value :  2.10050e-05
 Reference value :  2.10071e-05
 Reference value :  2.10112e-05
 Reference value :  2.10143e-05
 Reference value :  2.10174e-05
 Reference value :  2.10286e-05
 Reference value :  2.10511e-05
 Reference value :  2.10656e-05
 Reference value :  2.10790e-05
 Reference value :  2.10998e-05
 Reference value :  2.11210e-05
 Reference value :  2.11324e-05
 Reference value :  2.11404e-05
 Reference value :  2.11551e-05
 Reference value :  2.11926e-05
 Reference value :  2.12501e-05
 Reference value :  2.12502e-05
 Reference value :  2.12503e-05
 Reference value :  2.12510e-05
 Reference value :  2.12519e-05
 Reference value :  2.12530e-05
 Reference value :  2.12540e-05
 Reference value :  2.12552e-05
 Reference value :  2.12589e-05
 Reference value :  2.12867e-05
 Reference value :  2.15000e-05
 Reference value :  2.15001e-05
 Reference value :  2.15001e-05
 Reference value :  2.15003e-05
 Reference value :  2.15008e-05
 Reference value :  2.15016e-05
 Reference value :  2.15024e-05
 Reference value :  2.15034e-05
 Reference value :  2.15047e-05
 Reference value :  2.15062e-05
 Reference value :  2.15077e-05
 Reference value :  2.15096e-05
 Reference value :  2.15155e-05
 Reference value :  2.15471e-05
 Reference value :  2.17501e-05
 Reference value :  2.17502e-05
 Reference value :  2.17503e-05
 Reference value :  2.17507e-05
 Reference value :  2.17514e-05
 Reference value :  2.17530e-05
 Reference value :  2.17540e-05
 Reference value :  2.17558e-05
 Reference value :  2.17698e-05
 Reference value :  2.20000e-05
 Reference value :  2.20007e-05
 Reference value :  2.20029e-05
 Reference value :  2.20049e-05
 Reference value :  2.20069e-05
 Reference value :  2.20105e-05
 Reference value :  2.20130e-05
 Reference value :  2.20161e-05
 Reference value :  2.20228e-05
 Reference value :  2.20382e-05
 Reference value :  2.20486e-05
 Reference value :  2.20587e-05
 Reference value :  2.20783e-05
 Reference value :  2.21411e-05
 Reference value :  2.22501e-05
 Reference value :  2.22502e-05
 Reference value :  2.22504e-05
 Reference value :  2.22514e-05
 Reference value :  2.22529e-05
 Reference value :  2.22545e-05
 Reference value :  2.22587e-05
 Reference value :  2.22846e-05
 Reference value :  2.25000e-05
 Reference value :  2.25001e-05
 Reference value :  2.25001e-05
 Reference value :  2.25003e-05
 Reference value :  2.25008e-05
 Reference value :  2.25015e-05
 Reference value :  2.25023e-05
 Reference value :  2.25028e-05
 Reference value :  2.25039e-05
 Reference value :  2.25054e-05
 Reference value :  2.25060e-05
 Reference value :  2.25075e-05
 Reference value :  2.25092e-05
 Reference value :  2.25114e-05
 Reference value :  2.25222e-05
 Reference value :  2.25795e-05
 Reference value :  2.27501e-05
 Reference value :  2.27502e-05
 Reference value :  2.27503e-05
 Reference value :  2.27504e-05
 Reference value :  2.27510e-05
 Reference value :  2.27519e-05
 Reference value :  2.27530e-05
 Reference value :  2.27534e-05
 Reference value :  2.27545e-05
 Reference value :  2.27558e-05
 Reference value :  2.27584e-05
 Reference value :  2.27636e-05
 Reference value :  2.28195e-05
 Reference value :  2.30000e-05
 Reference value :  2.30000e-05
 Reference value :  2.30001e-05
 Reference value :  2.30003e-05
 Reference value :  2.30012e-05
 Reference value :  2.30020e-05
 Reference value :  2.30029e-05
 Reference value :  2.30039e-05
 Reference value :  2.30048e-05
 Reference value :  2.30066e-05
 Reference value :  2.30075e-05
 Reference value :  2.30093e-05
 Reference value :  2.30113e-05
 Reference value :  2.30121e-05
 Reference value :  2.30136e-05
 Reference value :  2.30154e-05
 Reference value :  2.30164e-05
 Reference value :  2.30189e-05
 Reference value :  2.30213e-05
 Reference value :  2.30265e-05
 Reference value :  2.30454e-05
 Reference value :  2.31114e-05
 Reference value :  2.32501e-05
 Reference value :  2.32501e-05
 Reference value :  2.32502e-05
 Reference value :  2.32503e-05
 Reference value :  2.32510e-05
 Reference value :  2.32519e-05
 Reference value :  2.32535e-05
 Reference value :  2.32546e-05
 Reference value :  2.32574e-05
 Reference value :  2.32723e-05
 Reference value :  2.33719e-05
 Reference value :  2.35000e-05
 Reference value :  2.35001e-05
 Reference value :  2.35002e-05
 Reference value :  2.35008e-05
 Reference value :  2.35016e-05
 Reference value :  2.35029e-05
 Reference value :  2.35040e-05
 Reference value :  2.35055e-05
 Reference value :  2.35062e-05
 Reference value :  2.35077e-05
 Reference value :  2.35109e-05
 Reference value :  2.35296e-05
 Reference value :  2.37501e-05
 Reference value :  2.37502e-05
 Reference value :  2.37503e-05
 Reference value :  2.37514e-05
 Reference value :  2.37530e-05
 Reference value :  2.37534e-05
 Reference value :  2.37545e-05
 Reference value :  2.37558e-05
 Reference value :  2.37636e-05
 Reference value :  2.38581e-05
 Reference value :  2.40000e-05
 Reference value :  2.40001e-05
 Reference value :  2.40003e-05
 Reference value :  2.40012e-05
 Reference value :  2.40020e-05
 Reference value :  2.40029e-05
 Reference value :  2.40040e-05
 Reference value :  2.40050e-05
 Reference value :  2.40071e-05
 Reference value :  2.40112e-05
 Reference value :  2.40143e-05
 Reference value :  2.40162e-05
 Reference value :  2.40207e-05
 Reference value :  2.40458e-05
 Reference value :  2.42490e-05
 Reference value :  2.42501e-05
 Reference value :  2.42502e-05
 Reference value :  2.42504e-05
 Reference value :  2.42510e-05
 Reference value :  2.42519e-05
 Reference value :  2.42535e-05
 Reference value :  2.42546e-05
 Reference value :  2.42574e-05
 Reference value :  2.42724e-05
 Reference value :  2.44875e-05
 Reference value :  2.45000e-05
 Reference value :  2.45001e-05
 Reference value :  2.45001e-05
 Reference value :  2.45003e-05
 Reference value :  2.45008e-05
 Reference value :  2.45016e-05
 Reference value :  2.45029e-05
 Reference value :  2.45047e-05
 Reference value :  2.45062e-05
 Reference value :  2.45077e-05
 Reference value :  2.45125e-05
 Reference value :  2.45471e-05
 Reference value :  2.47501e-05
 Reference value :  2.47502e-05
 Reference value :  2.47504e-05
 Reference value :  2.47514e-05
 Reference value :  2.47530e-05
 Reference value :  2.47540e-05
 Reference value :  2.47550e-05
 Reference value :  2.47566e-05
 Reference value :  2.47698e-05
 Reference value :  2.48569e-05
 Reference value :  2.50000e-05
 Reference value :  2.50001e-05
 Reference value :  2.50002e-05
 Reference value :  2.50005e-05
 Reference value :  2.50012e-05
 Reference value :  2.50020e-05
 Reference value :  2.50029e-05
 Reference value :  2.50040e-05
 Reference value :  2.50050e-05
 Reference value :  2.50064e-05
 Reference value :  2.50079e-05
 Reference value :  2.50118e-05
 Reference value :  2.50647e-05
 Reference value :  2.52501e-05
 Reference value :  2.52502e-05
 Reference value :  2.52503e-05
 Reference value :  2.52510e-05
 Reference value :  2.52519e-05
 Reference value :  2.52536e-05
 Reference value :  2.52553e-05
 Reference value :  2.52577e-05
 Reference value :  2.52662e-05
 Reference value :  2.53217e-05
 Reference value :  2.55000e-05
 Reference value :  2.55000e-05
 Reference value :  2.55000e-05
 Reference value :  2.55000e-05
 Reference value :  2.55000e-05
 Reference value :  2.55001e-05
 Reference value :  2.55001e-05
 Reference value :  2.55002e-05
 Reference value :  2.55004e-05
 Reference value :  2.55012e-05
 Reference value :  2.55020e-05
 Reference value :  2.55029e-05
 Reference value :  2.55040e-05
 Reference value :  2.55045e-05
 Reference value :  2.55055e-05
 Reference value :  2.55120e-05
 Reference value :  2.55224e-05
 Reference value :  2.55263e-05
 Reference value :  2.55291e-05
 Reference value :  2.55317e-05
 Reference value :  2.55356e-05
 Reference value :  2.55391e-05
 Reference value :  2.55471e-05
 Reference value :  2.55636e-05
 Reference value :  2.56071e-05
 Reference value :  2.57317e-05
 Reference value :  2.57501e-05
 Reference value :  2.57502e-05
 Reference value :  2.57503e-05
 Reference value :  2.57510e-05
 Reference value :  2.57519e-05
 Reference value :  2.57530e-05
 Reference value :  2.57540e-05
 Reference value :  2.57545e-05
 Reference value :  2.57573e-05
 Reference value :  2.57647e-05
 Reference value :  2.58644e-05
 Reference value :  2.60001e-05
 Reference value :  2.60001e-05
 Reference value :  2.60003e-05
 Reference value :  2.60012e-05
 Reference value :  2.60016e-05
 Reference value :  2.60024e-05
 Reference value :  2.60034e-05
 Reference value :  2.60055e-05
 Reference value :  2.60065e-05
 Reference value :  2.60101e-05
 Reference value :  2.60128e-05
 Reference value :  2.60160e-05
 Reference value :  2.60361e-05
 Reference value :  2.62501e-05
 Reference value :  2.62502e-05
 Reference value :  2.62502e-05
 Reference value :  2.62504e-05
 Reference value :  2.62510e-05
 Reference value :  2.62519e-05
 Reference value :  2.62530e-05
 Reference value :  2.62540e-05
 Reference value :  2.62550e-05
 Reference value :  2.62566e-05
 Reference value :  2.62697e-05
 Reference value :  2.64559e-05
 Reference value :  2.65007e-05
 Reference value :  2.65030e-05
 Reference value :  2.65044e-05
 Reference value :  2.65050e-05
 Reference value :  2.65062e-05
 Reference value :  2.65094e-05
 Reference value :  2.65121e-05
 Reference value :  2.65139e-05
 Reference value :  2.65158e-05
 Reference value :  2.65202e-05
 Reference value :  2.65440e-05
 Reference value :  2.65546e-05
 Reference value :  2.65630e-05
 Reference value :  2.65699e-05
 Reference value :  2.65752e-05
 Reference value :  2.65871e-05
 Reference value :  2.65996e-05
 Reference value :  2.66400e-05
 Reference value :  2.67501e-05
 Reference value :  2.67502e-05
 Reference value :  2.67502e-05
 Reference value :  2.67504e-05
 Reference value :  2.67510e-05
 Reference value :  2.67514e-05
 Reference value :  2.67523e-05
 Reference value :  2.67534e-05
 Reference value :  2.67545e-05
 Reference value :  2.67574e-05
 Reference value :  2.67714e-05
 Reference value :  2.68642e-05
 Reference value :  2.70000e-05
 Reference value :  2.70001e-05
 Reference value :  2.70002e-05
 Reference value :  2.70008e-05
 Reference value :  2.70015e-05
 Reference value :  2.70028e-05
 Reference value :  2.70046e-05
 Reference value :  2.70060e-05
 Reference value :  2.70075e-05
 Reference value :  2.70103e-05
 Reference value :  2.70221e-05
 Reference value :  2.71423e-05
 Reference value :  2.72501e-05
 Reference value :  2.72502e-05
 Reference value :  2.72504e-05
 Reference value :  2.72510e-05
 Reference value :  2.72519e-05
 Reference value :  2.72530e-05
 Reference value :  2.72540e-05
 Reference value :  2.72550e-05
 Reference value :  2.72566e-05
 Reference value :  2.72596e-05
 Reference value :  2.72673e-05
 Reference value :  2.73187e-05
 Reference value :  2.75000e-05
 Reference value :  2.75001e-05
 Reference value :  2.75002e-05
 Reference value :  2.75003e-05
 Reference value :  2.75008e-05
 Reference value :  2.75016e-05
 Reference value :  2.75029e-05
 Reference value :  2.75039e-05
 Reference value :  2.75048e-05
 Reference value :  2.75066e-05
 Reference value :  2.75084e-05
 Reference value :  2.75102e-05
 Reference value :  2.75119e-05
 Reference value :  2.75136e-05
 Reference value :  2.75164e-05
 Reference value :  2.75248e-05
 Reference value :  2.76415e-05
 Reference value :  2.76727e-05
 Reference value :  2.77443e-05
 Reference value :  2.77502e-05
 Reference value :  2.77504e-05
 Reference value :  2.77514e-05
 Reference value :  2.77530e-05
 Reference value :  2.77546e-05
 Reference value :  2.77616e-05
 Reference value :  2.78449e-05
 Reference value :  2.78909e-05
 Reference value :  2.79223e-05
 Reference value :  2.79922e-05
 Reference value :  2.80001e-05
 Reference value :  2.80006e-05
 Reference value :  2.80013e-05
 Reference value :  2.80026e-05
 Reference value :  2.80038e-05
 Reference value :  2.80052e-05
 Reference value :  2.80058e-05
 Reference value :  2.80074e-05
 Reference value :  2.80101e-05
 Reference value :  2.80238e-05
 Reference value :  2.82253e-05
 Reference value :  2.82501e-05
 Reference value :  2.82502e-05
 Reference value :  2.82504e-05
 Reference value :  2.82514e-05
 Reference value :  2.82530e-05
 Reference value :  2.82539e-05
 Reference value :  2.82550e-05
 Reference value :  2.82565e-05
 Reference value :  2.82594e-05
 Reference value :  2.82727e-05
 Reference value :  2.85000e-05
 Reference value :  2.85001e-05
 Reference value :  2.85002e-05
 Reference value :  2.85008e-05
 Reference value :  2.85020e-05
 Reference value :  2.85029e-05
 Reference value :  2.85039e-05
 Reference value :  2.85048e-05
 Reference value :  2.85066e-05
 Reference value :  2.85093e-05
 Reference value :  2.85112e-05
 Reference value :  2.85127e-05
 Reference value :  2.85144e-05
 Reference value :  2.85163e-05
 Reference value :  2.85239e-05
 Reference value :  2.85276e-05
 Reference value :  2.85348e-05
 Reference value :  2.85398e-05
 Reference value :  2.85474e-05
 Reference value :  2.85719e-05
 Reference value :  2.86895e-05
 Reference value :  2.87501e-05
 Reference value :  2.87502e-05
 Reference value :  2.87503e-05
 Reference value :  2.87510e-05
 Reference value :  2.87519e-05
 Reference value :  2.87530e-05
 Reference value :  2.87540e-05
 Reference value :  2.87552e-05
 Reference value :  2.87589e-05
 Reference value :  2.87866e-05
 Reference value :  2.89867e-05
 Reference value :  2.90002e-05
 Reference value :  2.90009e-05
 Reference value :  2.90019e-05
 Reference value :  2.90035e-05
 Reference value :  2.90049e-05
 Reference value :  2.90066e-05
 Reference value :  2.90085e-05
 Reference value :  2.90106e-05
 Reference value :  2.90171e-05
 Reference value :  2.90753e-05
 Reference value :  2.92501e-05
 Reference value :  2.92502e-05
 Reference value :  2.92510e-05
 Reference value :  2.92523e-05
 Reference value :  2.92534e-05
 Reference value :  2.92550e-05
 Reference value :  2.92603e-05
 Reference value :  2.93569e-05
 Reference value :  2.95001e-05
 Reference value :  2.95002e-05
 Reference value :  2.95005e-05
 Reference value :  2.95012e-05
 Reference value :  2.95020e-05
 Reference value :  2.95034e-05
 Reference value :  2.95050e-05
 Reference value :  2.95063e-05
 Reference value :  2.95085e-05
 Reference value :  2.95112e-05
 Reference value :  2.95132e-05
 Reference value :  2.95152e-05
 Reference value :  2.95191e-05
 Reference value :  2.95286e-05
 Reference value :  2.95558e-05
 Reference value :  2.95628e-05
 Reference value :  2.95758e-05
 Reference value :  2.95882e-05
 Reference value :  2.96061e-05
 Reference value :  2.96141e-05
 Reference value :  2.96337e-05
 Reference value :  2.96578e-05
 Reference value :  2.97192e-05
 Reference value :  2.97501e-05
 Reference value :  2.97503e-05
 Reference value :  2.97507e-05
 Reference value :  2.97514e-05
 Reference value :  2.97530e-05
 Reference value :  2.97546e-05
 Reference value :  2.97589e-05
 Reference value :  2.97866e-05
 Reference value :  3.00000e-05
 Reference value :  3.00001e-05
 Reference value :  3.00003e-05
 Reference value :  3.00012e-05
 Reference value :  3.00024e-05
 Reference value :  3.00034e-05
 Reference value :  3.00055e-05
 Reference value :  3.00077e-05
 Reference value :  3.00125e-05
 Reference value :  3.00815e-05
 Reference value :  3.02501e-05
 Reference value :  3.02502e-05
 Reference value :  3.02507e-05
 Reference value :  3.02514e-05
 Reference value :  3.02523e-05
 Reference value :  3.02534e-05
 Reference value :  3.02545e-05
 Reference value :  3.02566e-05
 Reference value :  3.02698e-05
 Reference value :  3.04572e-05
 Reference value :  3.05007e-05
 Reference value :  3.05029e-05
 Reference value :  3.05043e-05
 Reference value :  3.05055e-05
 Reference value :  3.05078e-05
 Reference value :  3.05092e-05
 Reference value :  3.05120e-05
 Reference value :  3.05139e-05
 Reference value :  3.05174e-05
 Reference value :  3.05228e-05
 Reference value :  3.05376e-05
 Reference value :  3.05477e-05
 Reference value :  3.05569e-05
 Reference value :  3.05810e-05
 Reference value :  3.06621e-05
 Reference value :  3.07501e-05
 Reference value :  3.07502e-05
 Reference value :  3.07507e-05
 Reference value :  3.07514e-05
 Reference value :  3.07529e-05
 Reference value :  3.07539e-05
 Reference value :  3.07559e-05
 Reference value :  3.07615e-05
 Reference value :  3.07847e-05
 Reference value :  3.09707e-05
 Reference value :  3.10000e-05
 Reference value :  3.10001e-05
 Reference value :  3.10002e-05
 Reference value :  3.10003e-05
 Reference value :  3.10008e-05
 Reference value :  3.10015e-05
 Reference value :  3.10028e-05
 Reference value :  3.10039e-05
 Reference value :  3.10054e-05
 Reference value :  3.10060e-05
 Reference value :  3.10075e-05
 Reference value :  3.10092e-05
 Reference value :  3.10103e-05
 Reference value :  3.10167e-05
 Reference value :  3.10476e-05
 Reference value :  3.12501e-05
 Reference value :  3.12501e-05
 Reference value :  3.12502e-05
 Reference value :  3.12503e-05
 Reference value :  3.12507e-05
 Reference value :  3.12514e-05
 Reference value :  3.12530e-05
 Reference value :  3.12534e-05
 Reference value :  3.12545e-05
 Reference value :  3.12558e-05
 Reference value :  3.12584e-05
 Reference value :  3.12610e-05
 Reference value :  3.12898e-05
 Reference value :  3.15000e-05
 Reference value :  3.15001e-05
 Reference value :  3.15001e-05
 Reference value :  3.15003e-05
 Reference value :  3.15008e-05
 Reference value :  3.15016e-05
 Reference value :  3.15024e-05
 Reference value :  3.15034e-05
 Reference value :  3.15044e-05
 Reference value :  3.15048e-05
 Reference value :  3.15059e-05
 Reference value :  3.15076e-05
 Reference value :  3.15093e-05
 Reference value :  3.15102e-05
 Reference value :  3.15119e-05
 Reference value :  3.15136e-05
 Reference value :  3.15152e-05
 Reference value :  3.15181e-05
 Reference value :  3.15242e-05
 Reference value :  3.15430e-05
 Reference value :  3.15904e-05
 Reference value :  3.17501e-05
 Reference value :  3.17502e-05
 Reference value :  3.17502e-05
 Reference value :  3.17504e-05
 Reference value :  3.17510e-05
 Reference value :  3.17519e-05
 Reference value :  3.17530e-05
 Reference value :  3.17540e-05
 Reference value :  3.17552e-05
 Reference value :  3.17589e-05
 Reference value :  3.17724e-05
 Reference value :  3.19872e-05
 Reference value :  3.20000e-05
 Reference value :  3.20001e-05
 Reference value :  3.20002e-05
 Reference value :  3.20003e-05
 Reference value :  3.20008e-05
 Reference value :  3.20016e-05
 Reference value :  3.20029e-05
 Reference value :  3.20040e-05
 Reference value :  3.20062e-05
 Reference value :  3.20077e-05
 Reference value :  3.20109e-05
 Reference value :  3.20295e-05
 Reference value :  3.22501e-05
 Reference value :  3.22502e-05
 Reference value :  3.22502e-05
 Reference value :  3.22504e-05
 Reference value :  3.22514e-05
 Reference value :  3.22530e-05
 Reference value :  3.22540e-05
 Reference value :  3.22550e-05
 Reference value :  3.22582e-05
 Reference value :  3.22822e-05
 Reference value :  3.25000e-05
 Reference value :  3.25001e-05
 Reference value :  3.25001e-05
 Reference value :  3.25003e-05
 Reference value :  3.25008e-05
 Reference value :  3.25016e-05
 Reference value :  3.25024e-05
 Reference value :  3.25034e-05
 Reference value :  3.25050e-05
 Reference value :  3.25071e-05
 Reference value :  3.25112e-05
 Reference value :  3.25132e-05
 Reference value :  3.25152e-05
 Reference value :  3.25191e-05
 Reference value :  3.25342e-05
 Reference value :  3.26643e-05
 Reference value :  3.27501e-05
 Reference value :  3.27503e-05
 Reference value :  3.27510e-05
 Reference value :  3.27519e-05
 Reference value :  3.27530e-05
 Reference value :  3.27540e-05
 Reference value :  3.27552e-05
 Reference value :  3.27616e-05
 Reference value :  3.28152e-05
 Reference value :  3.30000e-05
 Reference value :  3.30001e-05
 Reference value :  3.30003e-05
 Reference value :  3.30012e-05
 Reference value :  3.30020e-05
 Reference value :  3.30029e-05
 Reference value :  3.30040e-05
 Reference value :  3.30055e-05
 Reference value :  3.30069e-05
 Reference value :  3.30096e-05
 Reference value :  3.30205e-05
 Reference value :  3.31526e-05
 Reference value :  3.32501e-05
 Reference value :  3.32502e-05
 Reference value :  3.32504e-05
 Reference value :  3.32514e-05
 Reference value :  3.32530e-05
 Reference value :  3.32534e-05
 Reference value :  3.32545e-05
 Reference value :  3.32558e-05
 Reference value :  3.32603e-05
 Reference value :  3.33071e-05
 Reference value :  3.35007e-05
 Reference value :  3.35030e-05
 Reference value :  3.35044e-05
 Reference value :  3.35056e-05
 Reference value :  3.35071e-05
 Reference value :  3.35087e-05
 Reference value :  3.35108e-05
 Reference value :  3.35220e-05
 Reference value :  3.36788e-05
 Reference value :  3.37501e-05
 Reference value :  3.37502e-05
 Reference value :  3.37503e-05
 Reference value :  3.37510e-05
 Reference value :  3.37519e-05
 Reference value :  3.37529e-05
 Reference value :  3.37545e-05
 Reference value :  3.37562e-05
 Reference value :  3.37590e-05
 Reference value :  3.37739e-05
 Reference value :  3.38877e-05
 Reference value :  3.40000e-05
 Reference value :  3.40000e-05
 Reference value :  3.40000e-05
 Reference value :  3.40000e-05
 Reference value :  3.40000e-05
 Reference value :  3.40001e-05
 Reference value :  3.40001e-05
 Reference value :  3.40001e-05
 Reference value :  3.40003e-05
 Reference value :  3.40007e-05
 Reference value :  3.40016e-05
 Reference value :  3.40020e-05
 Reference value :  3.40029e-05
 Reference value :  3.40040e-05
 Reference value :  3.40045e-05
 Reference value :  3.40062e-05
 Reference value :  3.40173e-05
 Reference value :  3.40224e-05
 Reference value :  3.40263e-05
 Reference value :  3.40292e-05
 Reference value :  3.40318e-05
 Reference value :  3.40356e-05
 Reference value :  3.40412e-05
 Reference value :  3.40576e-05
 Reference value :  3.41133e-05
 Reference value :  3.42501e-05
 Reference value :  3.42502e-05
 Reference value :  3.42503e-05
 Reference value :  3.42510e-05
 Reference value :  3.42519e-05
 Reference value :  3.42530e-05
 Reference value :  3.42540e-05
 Reference value :  3.42551e-05
 Reference value :  3.42587e-05
 Reference value :  3.42714e-05
 Reference value :  3.43644e-05
 Reference value :  3.45000e-05
 Reference value :  3.45001e-05
 Reference value :  3.45002e-05
 Reference value :  3.45008e-05
 Reference value :  3.45016e-05
 Reference value :  3.45029e-05
 Reference value :  3.45047e-05
 Reference value :  3.45065e-05
 Reference value :  3.45090e-05
 Reference value :  3.45115e-05
 Reference value :  3.45141e-05
 Reference value :  3.45180e-05
 Reference value :  3.45361e-05
 Reference value :  3.46382e-05
 Reference value :  3.47501e-05
 Reference value :  3.47502e-05
 Reference value :  3.47503e-05
 Reference value :  3.47507e-05
 Reference value :  3.47514e-05
 Reference value :  3.47523e-05
 Reference value :  3.47534e-05
 Reference value :  3.47545e-05
 Reference value :  3.47558e-05
 Reference value :  3.47602e-05
 Reference value :  3.48070e-05
 Reference value :  3.50000e-05
 Reference value :  3.50001e-05
 Reference value :  3.50002e-05
 Reference value :  3.50003e-05
 Reference value :  3.50008e-05
 Reference value :  3.50016e-05
 Reference value :  3.50024e-05
 Reference value :  3.50029e-05
 Reference value :  3.50040e-05
 Reference value :  3.50050e-05
 Reference value :  3.50063e-05
 Reference value :  3.50085e-05
 Reference value :  3.50112e-05
 Reference value :  3.50122e-05
 Reference value :  3.50143e-05
 Reference value :  3.50163e-05
 Reference value :  3.50192e-05
 Reference value :  3.50289e-05
 Reference value :  3.50445e-05
 Reference value :  3.50536e-05
 Reference value :  3.50696e-05
 Reference value :  3.50809e-05
 Reference value :  3.51008e-05
 Reference value :  3.51405e-05
 Reference value :  3.52501e-05
 Reference value :  3.52502e-05
 Reference value :  3.52502e-05
 Reference value :  3.52504e-05
 Reference value :  3.52514e-05
 Reference value :  3.52530e-05
 Reference value :  3.52539e-05
 Reference value :  3.52553e-05
 Reference value :  3.52588e-05
 Reference value :  3.52856e-05
 Reference value :  3.54788e-05
 Reference value :  3.55001e-05
 Reference value :  3.55002e-05
 Reference value :  3.55008e-05
 Reference value :  3.55019e-05
 Reference value :  3.55028e-05
 Reference value :  3.55039e-05
 Reference value :  3.55054e-05
 Reference value :  3.55060e-05
 Reference value :  3.55075e-05
 Reference value :  3.55103e-05
 Reference value :  3.55222e-05
 Reference value :  3.55792e-05
 Reference value :  3.57501e-05
 Reference value :  3.57502e-05
 Reference value :  3.57503e-05
 Reference value :  3.57510e-05
 Reference value :  3.57519e-05
 Reference value :  3.57530e-05
 Reference value :  3.57534e-05
 Reference value :  3.57545e-05
 Reference value :  3.57558e-05
 Reference value :  3.57575e-05
 Reference value :  3.57596e-05
 Reference value :  3.58199e-05
 Reference value :  3.60000e-05
 Reference value :  3.60001e-05
 Reference value :  3.60004e-05
 Reference value :  3.60010e-05
 Reference value :  3.60018e-05
 Reference value :  3.60027e-05
 Reference value :  3.60036e-05
 Reference value :  3.60046e-05
 Reference value :  3.60056e-05
 Reference value :  3.60082e-05
 Reference value :  3.60090e-05
 Reference value :  3.60109e-05
 Reference value :  3.60130e-05
 Reference value :  3.60148e-05
 Reference value :  3.60168e-05
 Reference value :  3.60221e-05
 Reference value :  3.60747e-05
 Reference value :  3.61399e-05
 Reference value :  3.61633e-05
 Reference value :  3.61791e-05
 Reference value :  3.62023e-05
 Reference value :  3.62501e-05
 Reference value :  3.62502e-05
 Reference value :  3.62503e-05
 Reference value :  3.62510e-05
 Reference value :  3.62519e-05
 Reference value :  3.62534e-05
 Reference value :  3.62552e-05
 Reference value :  3.62649e-05
 Reference value :  3.63455e-05
 Reference value :  3.63826e-05
 Reference value :  3.64075e-05
 Reference value :  3.64188e-05
 Reference value :  3.64420e-05
 Reference value :  3.65000e-05
 Reference value :  3.65001e-05
 Reference value :  3.65002e-05
 Reference value :  3.65005e-05
 Reference value :  3.65012e-05
 Reference value :  3.65019e-05
 Reference value :  3.65028e-05
 Reference value :  3.65046e-05
 Reference value :  3.65060e-05
 Reference value :  3.65075e-05
 Reference value :  3.65092e-05
 Reference value :  3.65114e-05
 Reference value :  3.65224e-05
 Reference value :  3.65827e-05
 Reference value :  3.67501e-05
 Reference value :  3.67502e-05
 Reference value :  3.67503e-05
 Reference value :  3.67507e-05
 Reference value :  3.67514e-05
 Reference value :  3.67523e-05
 Reference value :  3.67534e-05
 Reference value :  3.67545e-05
 Reference value :  3.67558e-05
 Reference value :  3.67583e-05
 Reference value :  3.67610e-05
 Reference value :  3.67890e-05
 Reference value :  3.70000e-05
 Reference value :  3.70001e-05
 Reference value :  3.70001e-05
 Reference value :  3.70002e-05
 Reference value :  3.70005e-05
 Reference value :  3.70012e-05
 Reference value :  3.70020e-05
 Reference value :  3.70029e-05
 Reference value :  3.70039e-05
 Reference value :  3.70048e-05
 Reference value :  3.70059e-05
 Reference value :  3.70075e-05
 Reference value :  3.70103e-05
 Reference value :  3.70120e-05
 Reference value :  3.70136e-05
 Reference value :  3.70153e-05
 Reference value :  3.70173e-05
 Reference value :  3.70239e-05
 Reference value :  3.70317e-05
 Reference value :  3.70355e-05
 Reference value :  3.70402e-05
 Reference value :  3.70427e-05
 Reference value :  3.70494e-05
 Reference value :  3.70594e-05
 Reference value :  3.70917e-05
 Reference value :  3.71960e-05
 Reference value :  3.72501e-05
 Reference value :  3.72501e-05
 Reference value :  3.72502e-05
 Reference value :  3.72503e-05
 Reference value :  3.72510e-05
 Reference value :  3.72519e-05
 Reference value :  3.72530e-05
 Reference value :  3.72540e-05
 Reference value :  3.72560e-05
 Reference value :  3.72652e-05
 Reference value :  3.73152e-05
 Reference value :  3.75000e-05
 Reference value :  3.75001e-05
 Reference value :  3.75002e-05
 Reference value :  3.75008e-05
 Reference value :  3.75020e-05
 Reference value :  3.75029e-05
 Reference value :  3.75040e-05
 Reference value :  3.75055e-05
 Reference value :  3.75062e-05
 Reference value :  3.75077e-05
 Reference value :  3.75096e-05
 Reference value :  3.75155e-05
 Reference value :  3.76529e-05
 Reference value :  3.77502e-05
 Reference value :  3.77503e-05
 Reference value :  3.77510e-05
 Reference value :  3.77519e-05
 Reference value :  3.77530e-05
 Reference value :  3.77534e-05
 Reference value :  3.77545e-05
 Reference value :  3.77558e-05
 Reference value :  3.77603e-05
 Reference value :  3.77823e-05
 Reference value :  3.79573e-05
 Reference value :  3.80000e-05
 Reference value :  3.80001e-05
 Reference value :  3.80002e-05
 Reference value :  3.80003e-05
 Reference value :  3.80008e-05
 Reference value :  3.80016e-05
 Reference value :  3.80029e-05
 Reference value :  3.80040e-05
 Reference value :  3.80050e-05
 Reference value :  3.80063e-05
 Reference value :  3.80085e-05
 Reference value :  3.80100e-05
 Reference value :  3.80112e-05
 Reference value :  3.80122e-05
 Reference value :  3.80143e-05
 Reference value :  3.80152e-05
 Reference value :  3.80174e-05
 Reference value :  3.80239e-05
 Reference value :  3.80453e-05
 Reference value :  3.80627e-05
 Reference value :  3.80773e-05
 Reference value :  3.80990e-05
 Reference value :  3.81071e-05
 Reference value :  3.81147e-05
 Reference value :  3.81253e-05
 Reference value :  3.81460e-05
 Reference value :  3.82022e-05
 Reference value :  3.82501e-05
 Reference value :  3.82502e-05
 Reference value :  3.82503e-05
 Reference value :  3.82514e-05
 Reference value :  3.82530e-05
 Reference value :  3.82546e-05
 Reference value :  3.82574e-05
 Reference value :  3.82652e-05
 Reference value :  3.83154e-05
 Reference value :  3.85002e-05
 Reference value :  3.85009e-05
 Reference value :  3.85015e-05
 Reference value :  3.85028e-05
 Reference value :  3.85046e-05
 Reference value :  3.85060e-05
 Reference value :  3.85074e-05
 Reference value :  3.85092e-05
 Reference value :  3.85113e-05
 Reference value :  3.85218e-05
 Reference value :  3.85966e-05
 Reference value :  3.87501e-05
 Reference value :  3.87502e-05
 Reference value :  3.87503e-05
 Reference value :  3.87504e-05
 Reference value :  3.87510e-05
 Reference value :  3.87519e-05
 Reference value :  3.87530e-05
 Reference value :  3.87540e-05
 Reference value :  3.87550e-05
 Reference value :  3.87566e-05
 Reference value :  3.87821e-05
 Reference value :  3.90000e-05
 Reference value :  3.90001e-05
 Reference value :  3.90003e-05
 Reference value :  3.90012e-05
 Reference value :  3.90020e-05
 Reference value :  3.90029e-05
 Reference value :  3.90040e-05
 Reference value :  3.90050e-05
 Reference value :  3.90071e-05
 Reference value :  3.90100e-05
 Reference value :  3.90122e-05
 Reference value :  3.90152e-05
 Reference value :  3.90191e-05
 Reference value :  3.90289e-05
 Reference value :  3.90466e-05
 Reference value :  3.90575e-05
 Reference value :  3.90749e-05
 Reference value :  3.92041e-05
 Reference value :  3.92502e-05
 Reference value :  3.92503e-05
 Reference value :  3.92510e-05
 Reference value :  3.92519e-05
 Reference value :  3.92530e-05
 Reference value :  3.92539e-05
 Reference value :  3.92559e-05
 Reference value :  3.92649e-05
 Reference value :  3.93688e-05
 Reference value :  3.95000e-05
 Reference value :  3.95001e-05
 Reference value :  3.95002e-05
 Reference value :  3.95005e-05
 Reference value :  3.95012e-05
 Reference value :  3.95019e-05
 Reference value :  3.95028e-05
 Reference value :  3.95046e-05
 Reference value :  3.95060e-05
 Reference value :  3.95075e-05
 Reference value :  3.95103e-05
 Reference value :  3.95223e-05
 Reference value :  3.95423e-05
 Reference value :  3.95587e-05
 Reference value :  3.96527e-05
 Reference value :  3.97501e-05
 Reference value :  3.97502e-05
 Reference value :  3.97503e-05
 Reference value :  3.97510e-05
 Reference value :  3.97523e-05
 Reference value :  3.97534e-05
 Reference value :  3.97550e-05
 Reference value :  3.97603e-05
 Reference value :  3.98073e-05
 Reference value :  4.00000e-05
 Reference value :  4.00001e-05
 Reference value :  4.00002e-05
 Reference value :  4.00005e-05
 Reference value :  4.00016e-05
 Reference value :  4.00029e-05
 Reference value :  4.00045e-05
 Reference value :  4.00055e-05
 Reference value :  4.00085e-05
 Reference value :  4.00112e-05
 Reference value :  4.00132e-05
 Reference value :  4.00152e-05
 Reference value :  4.00191e-05
 Reference value :  4.00342e-05
 Reference value :  4.00419e-05
 Reference value :  4.00521e-05
 Reference value :  4.00829e-05
 Reference value :  4.01807e-05
 Reference value :  4.02501e-05
 Reference value :  4.02502e-05
 Reference value :  4.02503e-05
 Reference value :  4.02510e-05
 Reference value :  4.02519e-05
 Reference value :  4.02530e-05
 Reference value :  4.02539e-05
 Reference value :  4.02553e-05
 Reference value :  4.02588e-05
 Reference value :  4.02719e-05
 Reference value :  4.04799e-05
 Reference value :  4.05000e-05
 Reference value :  4.05001e-05
 Reference value :  4.05002e-05
 Reference value :  4.05008e-05
 Reference value :  4.05015e-05
 Reference value :  4.05023e-05
 Reference value :  4.05033e-05
 Reference value :  4.05060e-05
 Reference value :  4.05075e-05
 Reference value :  4.05092e-05
 Reference value :  4.05114e-05
 Reference value :  4.05221e-05
 Reference value :  4.05791e-05
 Reference value :  4.07501e-05
 Reference value :  4.07502e-05
 Reference value :  4.07503e-05
 Reference value :  4.07504e-05
 Reference value :  4.07510e-05
 Reference value :  4.07514e-05
 Reference value :  4.07523e-05
 Reference value :  4.07534e-05
 Reference value :  4.07550e-05
 Reference value :  4.07575e-05
 Reference value :  4.07610e-05
 Reference value :  4.08193e-05
 Reference value :  4.10000e-05
 Reference value :  4.10001e-05
 Reference value :  4.10004e-05
 Reference value :  4.10009e-05
 Reference value :  4.10017e-05
 Reference value :  4.10025e-05
 Reference value :  4.10036e-05
 Reference value :  4.10046e-05
 Reference value :  4.10064e-05
 Reference value :  4.10092e-05
 Reference value :  4.10119e-05
 Reference value :  4.10146e-05
 Reference value :  4.10167e-05
 Reference value :  4.10302e-05
 Reference value :  4.12501e-05
 Reference value :  4.12502e-05
 Reference value :  4.12504e-05
 Reference value :  4.12514e-05
 Reference value :  4.12530e-05
 Reference value :  4.12539e-05
 Reference value :  4.12552e-05
 Reference value :  4.12587e-05
 Reference value :  4.12850e-05
 Reference value :  4.15000e-05
 Reference value :  4.15001e-05
 Reference value :  4.15001e-05
 Reference value :  4.15003e-05
 Reference value :  4.15008e-05
 Reference value :  4.15015e-05
 Reference value :  4.15028e-05
 Reference value :  4.15039e-05
 Reference value :  4.15060e-05
 Reference value :  4.15075e-05
 Reference value :  4.15092e-05
 Reference value :  4.15136e-05
 Reference value :  4.15474e-05
 Reference value :  4.17501e-05
 Reference value :  4.17502e-05
 Reference value :  4.17503e-05
 Reference value :  4.17507e-05
 Reference value :  4.17514e-05
 Reference value :  4.17530e-05
 Reference value :  4.17545e-05
 Reference value :  4.17558e-05
 Reference value :  4.17583e-05
 Reference value :  4.17610e-05
 Reference value :  4.17745e-05
 Reference value :  4.19924e-05
 Reference value :  4.20001e-05
 Reference value :  4.20002e-05
 Reference value :  4.20005e-05
 Reference value :  4.20012e-05
 Reference value :  4.20016e-05
 Reference value :  4.20024e-05
 Reference value :  4.20034e-05
 Reference value :  4.20044e-05
 Reference value :  4.20048e-05
 Reference value :  4.20059e-05
 Reference value :  4.20074e-05
 Reference value :  4.20090e-05
 Reference value :  4.20124e-05
 Reference value :  4.20169e-05
 Reference value :  4.20302e-05
 Reference value :  4.20554e-05
 Reference value :  4.20685e-05
 Reference value :  4.20773e-05
 Reference value :  4.21131e-05
 Reference value :  4.21835e-05
 Reference value :  4.22501e-05
 Reference value :  4.22502e-05
 Reference value :  4.22503e-05
 Reference value :  4.22507e-05
 Reference value :  4.22514e-05
 Reference value :  4.22523e-05
 Reference value :  4.22536e-05
 Reference value :  4.22553e-05
 Reference value :  4.22577e-05
 Reference value :  4.22750e-05
 Reference value :  4.25000e-05
 Reference value :  4.25000e-05
 Reference value :  4.25000e-05
 Reference value :  4.25001e-05
 Reference value :  4.25001e-05
 Reference value :  4.25003e-05
 Reference value :  4.25007e-05
 Reference value :  4.25016e-05
 Reference value :  4.25020e-05
 Reference value :  4.25029e-05
 Reference value :  4.25040e-05
 Reference value :  4.25045e-05
 Reference value :  4.25055e-05
 Reference value :  4.25090e-05
 Reference value :  4.25173e-05
 Reference value :  4.25224e-05
 Reference value :  4.25262e-05
 Reference value :  4.25291e-05
 Reference value :  4.25317e-05
 Reference value :  4.25358e-05
 Reference value :  4.25429e-05
 Reference value :  4.25538e-05
 Reference value :  4.25801e-05
 Reference value :  4.26567e-05
 Reference value :  4.27501e-05
 Reference value :  4.27502e-05
 Reference value :  4.27503e-05
 Reference value :  4.27504e-05
 Reference value :  4.27514e-05
 Reference value :  4.27523e-05
 Reference value :  4.27534e-05
 Reference value :  4.27545e-05
 Reference value :  4.27559e-05
 Reference value :  4.27614e-05
 Reference value :  4.27846e-05
 Reference value :  4.29705e-05
 Reference value :  4.30000e-05
 Reference value :  4.30001e-05
 Reference value :  4.30002e-05
 Reference value :  4.30008e-05
 Reference value :  4.30016e-05
 Reference value :  4.30024e-05
 Reference value :  4.30034e-05
 Reference value :  4.30065e-05
 Reference value :  4.30101e-05
 Reference value :  4.30115e-05
 Reference value :  4.30141e-05
 Reference value :  4.30215e-05
 Reference value :  4.31375e-05
 Reference value :  4.32502e-05
 Reference value :  4.32503e-05
 Reference value :  4.32510e-05
 Reference value :  4.32519e-05
 Reference value :  4.32530e-05
 Reference value :  4.32545e-05
 Reference value :  4.32582e-05
 Reference value :  4.33566e-05
 Reference value :  4.35007e-05
 Reference value :  4.35030e-05
 Reference value :  4.35050e-05
 Reference value :  4.35094e-05
 Reference value :  4.35130e-05
 Reference value :  4.35159e-05
 Reference value :  4.35342e-05
 Reference value :  4.35643e-05
 Reference value :  4.35835e-05
 Reference value :  4.36242e-05
 Reference value :  4.37501e-05
 Reference value :  4.37503e-05
 Reference value :  4.37514e-05
 Reference value :  4.37534e-05
 Reference value :  4.37574e-05
 Reference value :  4.38113e-05
 Reference value :  4.40001e-05
 Reference value :  4.40003e-05
 Reference value :  4.40012e-05
 Reference value :  4.40023e-05
 Reference value :  4.40033e-05
 Reference value :  4.40060e-05
 Reference value :  4.40075e-05
 Reference value :  4.40103e-05
 Reference value :  4.40221e-05
 Reference value :  4.41423e-05
 Reference value :  4.42502e-05
 Reference value :  4.42503e-05
 Reference value :  4.42510e-05
 Reference value :  4.42523e-05
 Reference value :  4.42534e-05
 Reference value :  4.42550e-05
 Reference value :  4.42575e-05
 Reference value :  4.42610e-05
 Reference value :  4.43192e-05
 Reference value :  4.45000e-05
 Reference value :  4.45001e-05
 Reference value :  4.45003e-05
 Reference value :  4.45016e-05
 Reference value :  4.45029e-05
 Reference value :  4.45044e-05
 Reference value :  4.45053e-05
 Reference value :  4.45066e-05
 Reference value :  4.45076e-05
 Reference value :  4.45084e-05
 Reference value :  4.45102e-05
 Reference value :  4.45119e-05
 Reference value :  4.45136e-05
 Reference value :  4.45154e-05
 Reference value :  4.45175e-05
 Reference value :  4.45248e-05
 Reference value :  4.45654e-05
 Reference value :  4.46388e-05
 Reference value :  4.46689e-05
 Reference value :  4.46887e-05
 Reference value :  4.47349e-05
 Reference value :  4.47501e-05
 Reference value :  4.47502e-05
 Reference value :  4.47507e-05
 Reference value :  4.47514e-05
 Reference value :  4.47530e-05
 Reference value :  4.47546e-05
 Reference value :  4.47589e-05
 Reference value :  4.47724e-05
 Reference value :  4.48542e-05
 Reference value :  4.48913e-05
 Reference value :  4.49177e-05
 Reference value :  4.49305e-05
 Reference value :  4.49555e-05
 Reference value :  4.49972e-05
 Reference value :  4.50000e-05
 Reference value :  4.50001e-05
 Reference value :  4.50002e-05
 Reference value :  4.50005e-05
 Reference value :  4.50012e-05
 Reference value :  4.50019e-05
 Reference value :  4.50028e-05
 Reference value :  4.50039e-05
 Reference value :  4.50060e-05
 Reference value :  4.50075e-05
 Reference value :  4.50102e-05
 Reference value :  4.50322e-05
 Reference value :  4.52501e-05
 Reference value :  4.52502e-05
 Reference value :  4.52503e-05
 Reference value :  4.52507e-05
 Reference value :  4.52514e-05
 Reference value :  4.52523e-05
 Reference value :  4.52530e-05
 Reference value :  4.52534e-05
 Reference value :  4.52545e-05
 Reference value :  4.52558e-05
 Reference value :  4.52583e-05
 Reference value :  4.52636e-05
 Reference value :  4.53193e-05
 Reference value :  4.55000e-05
 Reference value :  4.55000e-05
 Reference value :  4.55001e-05
 Reference value :  4.55002e-05
 Reference value :  4.55008e-05
 Reference value :  4.55016e-05
 Reference value :  4.55024e-05
 Reference value :  4.55034e-05
 Reference value :  4.55044e-05
 Reference value :  4.55053e-05
 Reference value :  4.55075e-05
 Reference value :  4.55093e-05
 Reference value :  4.55103e-05
 Reference value :  4.55120e-05
 Reference value :  4.55136e-05
[...]
 Reference value :  1.65560e-04
 Reference value :  1.65587e-04
 Reference value :  1.65596e-04
 Reference value :  1.65624e-04
 Reference value :  1.65750e-04
 Reference value :  1.65750e-04
 Reference value :  1.65750e-04
 Reference value :  1.65751e-04
 Reference value :  1.65752e-04
 Reference value :  1.65753e-04
 Reference value :  1.65755e-04
 Reference value :  1.65757e-04
 Reference value :  1.65787e-04
 Reference value :  1.66000e-04
 Reference value :  1.66000e-04
 Reference value :  1.66000e-04
 Reference value :  1.66001e-04
 Reference value :  1.66002e-04
 Reference value :  1.66003e-04
 Reference value :  1.66005e-04
 Reference value :  1.66007e-04
 Reference value :  1.66011e-04
 Reference value :  1.66047e-04
 Reference value :  1.66250e-04
 Reference value :  1.66250e-04
 Reference value :  1.66251e-04
 Reference value :  1.66252e-04
 Reference value :  1.66253e-04
 Reference value :  1.66254e-04
 Reference value :  1.66256e-04
 Reference value :  1.66258e-04
 Reference value :  1.66261e-04
 Reference value :  1.66289e-04
 Reference value :  1.66500e-04
 Reference value :  1.66500e-04
 Reference value :  1.66500e-04
 Reference value :  1.66501e-04
 Reference value :  1.66502e-04
 Reference value :  1.66502e-04
 Reference value :  1.66503e-04
 Reference value :  1.66504e-04
 Reference value :  1.66505e-04
 Reference value :  1.66508e-04
 Reference value :  1.66509e-04
 Reference value :  1.66510e-04
 Reference value :  1.66512e-04
 Reference value :  1.66514e-04
 Reference value :  1.66518e-04
 Reference value :  1.66532e-04
 Reference value :  1.66564e-04
 Reference value :  1.66610e-04
 Reference value :  1.66713e-04
 Reference value :  1.66750e-04
 Reference value :  1.66750e-04
 Reference value :  1.66751e-04
 Reference value :  1.66753e-04
 Reference value :  1.66755e-04
 Reference value :  1.66759e-04
 Reference value :  1.66817e-04
 Reference value :  1.67000e-04
 Reference value :  1.67000e-04
 Reference value :  1.67000e-04
 Reference value :  1.67001e-04
 Reference value :  1.67001e-04
 Reference value :  1.67002e-04
 Reference value :  1.67002e-04
 Reference value :  1.67003e-04
 Reference value :  1.67003e-04
 Reference value :  1.67004e-04
 Reference value :  1.67005e-04
 Reference value :  1.67006e-04
 Reference value :  1.67007e-04
 Reference value :  1.67009e-04
 Reference value :  1.67014e-04
 Reference value :  1.67079e-04
 Reference value :  1.67250e-04
 Reference value :  1.67250e-04
 Reference value :  1.67251e-04
 Reference value :  1.67251e-04
 Reference value :  1.67253e-04
 Reference value :  1.67254e-04
 Reference value :  1.67256e-04
 Reference value :  1.67260e-04
 Reference value :  1.67275e-04
 Reference value :  1.67494e-04
 Reference value :  1.67500e-04
 Reference value :  1.67500e-04
 Reference value :  1.67501e-04
 Reference value :  1.67501e-04
 Reference value :  1.67502e-04
 Reference value :  1.67503e-04
 Reference value :  1.67504e-04
 Reference value :  1.67505e-04
 Reference value :  1.67507e-04
 Reference value :  1.67509e-04
 Reference value :  1.67510e-04
 Reference value :  1.67512e-04
 Reference value :  1.67514e-04
 Reference value :  1.67517e-04
 Reference value :  1.67524e-04
 Reference value :  1.67552e-04
 Reference value :  1.67671e-04
 Reference value :  1.67750e-04
 Reference value :  1.67750e-04
 Reference value :  1.67750e-04
 Reference value :  1.67751e-04
 Reference value :  1.67752e-04
 Reference value :  1.67753e-04
 Reference value :  1.67755e-04
 Reference value :  1.67757e-04
 Reference value :  1.67773e-04
 Reference value :  1.67993e-04
 Reference value :  1.68000e-04
 Reference value :  1.68000e-04
 Reference value :  1.68001e-04
 Reference value :  1.68001e-04
 Reference value :  1.68002e-04
 Reference value :  1.68003e-04
 Reference value :  1.68004e-04
 Reference value :  1.68005e-04
 Reference value :  1.68006e-04
 Reference value :  1.68007e-04
 Reference value :  1.68009e-04
 Reference value :  1.68011e-04
 Reference value :  1.68022e-04
 Reference value :  1.68142e-04
 Reference value :  1.68250e-04
 Reference value :  1.68250e-04
 Reference value :  1.68250e-04
 Reference value :  1.68251e-04
 Reference value :  1.68252e-04
 Reference value :  1.68253e-04
 Reference value :  1.68254e-04
 Reference value :  1.68255e-04
 Reference value :  1.68257e-04
 Reference value :  1.68260e-04
 Reference value :  1.68275e-04
 Reference value :  1.68495e-04
 Reference value :  1.68500e-04
 Reference value :  1.68500e-04
 Reference value :  1.68500e-04
 Reference value :  1.68500e-04
 Reference value :  1.68501e-04
 Reference value :  1.68502e-04
 Reference value :  1.68503e-04
 Reference value :  1.68504e-04
 Reference value :  1.68505e-04
 Reference value :  1.68508e-04
 Reference value :  1.68509e-04
 Reference value :  1.68510e-04
 Reference value :  1.68512e-04
 Reference value :  1.68514e-04
 Reference value :  1.68517e-04
 Reference value :  1.68520e-04
 Reference value :  1.68545e-04
 Reference value :  1.68750e-04
 Reference value :  1.68750e-04
 Reference value :  1.68750e-04
 Reference value :  1.68751e-04
 Reference value :  1.68753e-04
 Reference value :  1.68754e-04
 Reference value :  1.68756e-04
 Reference value :  1.68765e-04
 Reference value :  1.68875e-04
 Reference value :  1.69000e-04
 Reference value :  1.69000e-04
 Reference value :  1.69000e-04
 Reference value :  1.69001e-04
 Reference value :  1.69002e-04
 Reference value :  1.69003e-04
 Reference value :  1.69005e-04
 Reference value :  1.69007e-04
 Reference value :  1.69009e-04
 Reference value :  1.69011e-04
 Reference value :  1.69047e-04
 Reference value :  1.69250e-04
 Reference value :  1.69250e-04
 Reference value :  1.69251e-04
 Reference value :  1.69252e-04
 Reference value :  1.69253e-04
 Reference value :  1.69254e-04
 Reference value :  1.69256e-04
 Reference value :  1.69257e-04
 Reference value :  1.69260e-04
 Reference value :  1.69267e-04
 Reference value :  1.69376e-04
 Reference value :  1.69500e-04
 Reference value :  1.69500e-04
 Reference value :  1.69500e-04
 Reference value :  1.69501e-04
 Reference value :  1.69502e-04
 Reference value :  1.69503e-04
 Reference value :  1.69504e-04
 Reference value :  1.69505e-04
 Reference value :  1.69507e-04
 Reference value :  1.69509e-04
 Reference value :  1.69514e-04
 Reference value :  1.69533e-04
 Reference value :  1.69597e-04
 Reference value :  1.69665e-04
 Reference value :  1.69748e-04
 Reference value :  1.69750e-04
 Reference value :  1.69750e-04
 Reference value :  1.69751e-04
 Reference value :  1.69751e-04
 Reference value :  1.69753e-04
 Reference value :  1.69755e-04
 Reference value :  1.69759e-04
 Reference value :  1.69791e-04
 Reference value :  1.70000e-04
 Reference value :  1.70000e-04
 Reference value :  1.70000e-04
 Reference value :  1.70000e-04
 Reference value :  1.70000e-04
 Reference value :  1.70000e-04
 Reference value :  1.70002e-04
 Reference value :  1.70002e-04
 Reference value :  1.70003e-04
 Reference value :  1.70004e-04
 Reference value :  1.70006e-04
 Reference value :  1.70012e-04
 Reference value :  1.70022e-04
 Reference value :  1.70026e-04
 Reference value :  1.70032e-04
 Reference value :  1.70038e-04
 Reference value :  1.70050e-04
 Reference value :  1.70096e-04
 Reference value :  1.70250e-04
 Reference value :  1.70250e-04
 Reference value :  1.70250e-04
 Reference value :  1.70251e-04
 Reference value :  1.70252e-04
 Reference value :  1.70253e-04
 Reference value :  1.70255e-04
 Reference value :  1.70257e-04
 Reference value :  1.70271e-04
 Reference value :  1.70471e-04
 Reference value :  1.70500e-04
 Reference value :  1.70500e-04
 Reference value :  1.70501e-04
 Reference value :  1.70501e-04
 Reference value :  1.70502e-04
 Reference value :  1.70503e-04
 Reference value :  1.70504e-04
 Reference value :  1.70507e-04
 Reference value :  1.70510e-04
 Reference value :  1.70513e-04
 Reference value :  1.70516e-04
 Reference value :  1.70536e-04
 Reference value :  1.70637e-04
 Reference value :  1.70750e-04
 Reference value :  1.70750e-04
 Reference value :  1.70750e-04
 Reference value :  1.70751e-04
 Reference value :  1.70752e-04
 Reference value :  1.70753e-04
 Reference value :  1.70754e-04
 Reference value :  1.70756e-04
 Reference value :  1.70764e-04
 Reference value :  1.70857e-04
 Reference value :  1.71000e-04
 Reference value :  1.71000e-04
 Reference value :  1.71000e-04
 Reference value :  1.71001e-04
 Reference value :  1.71002e-04
 Reference value :  1.71003e-04
 Reference value :  1.71005e-04
 Reference value :  1.71007e-04
 Reference value :  1.71010e-04
 Reference value :  1.71012e-04
 Reference value :  1.71015e-04
 Reference value :  1.71017e-04
 Reference value :  1.71024e-04
 Reference value :  1.71050e-04
 Reference value :  1.71078e-04
 Reference value :  1.71094e-04
 Reference value :  1.71115e-04
 Reference value :  1.71186e-04
 Reference value :  1.71250e-04
 Reference value :  1.71250e-04
 Reference value :  1.71250e-04
 Reference value :  1.71251e-04
 Reference value :  1.71252e-04
 Reference value :  1.71253e-04
 Reference value :  1.71255e-04
 Reference value :  1.71257e-04
 Reference value :  1.71272e-04
 Reference value :  1.71500e-04
 Reference value :  1.71500e-04
 Reference value :  1.71500e-04
 Reference value :  1.71501e-04
 Reference value :  1.71502e-04
 Reference value :  1.71503e-04
 Reference value :  1.71504e-04
 Reference value :  1.71506e-04
 Reference value :  1.71507e-04
 Reference value :  1.71509e-04
 Reference value :  1.71510e-04
 Reference value :  1.71514e-04
 Reference value :  1.71532e-04
 Reference value :  1.71643e-04
 Reference value :  1.71750e-04
 Reference value :  1.71750e-04
 Reference value :  1.71750e-04
 Reference value :  1.71751e-04
 Reference value :  1.71753e-04
 Reference value :  1.71754e-04
 Reference value :  1.71756e-04
 Reference value :  1.71758e-04
 Reference value :  1.71760e-04
 Reference value :  1.71775e-04
 Reference value :  1.72000e-04
 Reference value :  1.72000e-04
 Reference value :  1.72000e-04
 Reference value :  1.72000e-04
 Reference value :  1.72001e-04
 Reference value :  1.72002e-04
 Reference value :  1.72002e-04
 Reference value :  1.72003e-04
 Reference value :  1.72004e-04
 Reference value :  1.72005e-04
 Reference value :  1.72007e-04
 Reference value :  1.72008e-04
 Reference value :  1.72009e-04
 Reference value :  1.72010e-04
 Reference value :  1.72012e-04
 Reference value :  1.72014e-04
 Reference value :  1.72015e-04
 Reference value :  1.72018e-04
 Reference value :  1.72022e-04
 Reference value :  1.72046e-04
 Reference value :  1.72099e-04
 Reference value :  1.72147e-04
 Reference value :  1.72157e-04
 Reference value :  1.72177e-04
 Reference value :  1.72242e-04
 Reference value :  1.72250e-04
 Reference value :  1.72250e-04
 Reference value :  1.72250e-04
 Reference value :  1.72251e-04
 Reference value :  1.72251e-04
 Reference value :  1.72253e-04
 Reference value :  1.72255e-04
 Reference value :  1.72259e-04
 Reference value :  1.72287e-04
 Reference value :  1.72500e-04
 Reference value :  1.72500e-04
 Reference value :  1.72500e-04
 Reference value :  1.72501e-04
 Reference value :  1.72502e-04
 Reference value :  1.72503e-04
 Reference value :  1.72504e-04
 Reference value :  1.72506e-04
 Reference value :  1.72507e-04
 Reference value :  1.72509e-04
 Reference value :  1.72512e-04
 Reference value :  1.72547e-04
 Reference value :  1.72750e-04
 Reference value :  1.72750e-04
 Reference value :  1.72750e-04
 Reference value :  1.72751e-04
 Reference value :  1.72751e-04
 Reference value :  1.72752e-04
 Reference value :  1.72753e-04
 Reference value :  1.72754e-04
 Reference value :  1.72756e-04
 Reference value :  1.72760e-04
 Reference value :  1.72807e-04
 Reference value :  1.73000e-04
 Reference value :  1.73000e-04
 Reference value :  1.73000e-04
 Reference value :  1.73001e-04
 Reference value :  1.73002e-04
 Reference value :  1.73003e-04
 Reference value :  1.73004e-04
 Reference value :  1.73006e-04
 Reference value :  1.73008e-04
 Reference value :  1.73011e-04
 Reference value :  1.73013e-04
 Reference value :  1.73015e-04
 Reference value :  1.73021e-04
 Reference value :  1.73029e-04
 Reference value :  1.73038e-04
 Reference value :  1.73049e-04
 Reference value :  1.73088e-04
 Reference value :  1.73250e-04
 Reference value :  1.73250e-04
 Reference value :  1.73250e-04
 Reference value :  1.73251e-04
 Reference value :  1.73252e-04
 Reference value :  1.73253e-04
 Reference value :  1.73253e-04
 Reference value :  1.73255e-04
 Reference value :  1.73256e-04
 Reference value :  1.73259e-04
 Reference value :  1.73265e-04
 Reference value :  1.73286e-04
 Reference value :  1.73480e-04
 Reference value :  1.73500e-04
 Reference value :  1.73500e-04
 Reference value :  1.73500e-04
 Reference value :  1.73500e-04
 Reference value :  1.73501e-04
 Reference value :  1.73502e-04
 Reference value :  1.73502e-04
 Reference value :  1.73503e-04
 Reference value :  1.73504e-04
 Reference value :  1.73505e-04
 Reference value :  1.73506e-04
 Reference value :  1.73507e-04
 Reference value :  1.73509e-04
 Reference value :  1.73510e-04
 Reference value :  1.73517e-04
 Reference value :  1.73547e-04
 Reference value :  1.73750e-04
 Reference value :  1.73750e-04
 Reference value :  1.73750e-04
 Reference value :  1.73750e-04
 Reference value :  1.73751e-04
 Reference value :  1.73752e-04
 Reference value :  1.73753e-04
 Reference value :  1.73753e-04
 Reference value :  1.73754e-04
 Reference value :  1.73756e-04
 Reference value :  1.73758e-04
 Reference value :  1.73764e-04
 Reference value :  1.73820e-04
 Reference value :  1.74000e-04
 Reference value :  1.74000e-04
 Reference value :  1.74000e-04
 Reference value :  1.74000e-04
 Reference value :  1.74001e-04
 Reference value :  1.74002e-04
 Reference value :  1.74002e-04
 Reference value :  1.74003e-04
 Reference value :  1.74004e-04
 Reference value :  1.74005e-04
 Reference value :  1.74007e-04
 Reference value :  1.74009e-04
 Reference value :  1.74011e-04
 Reference value :  1.74014e-04
 Reference value :  1.74016e-04
 Reference value :  1.74020e-04
 Reference value :  1.74047e-04
 Reference value :  1.74100e-04
 Reference value :  1.74180e-04
 Reference value :  1.74250e-04
 Reference value :  1.74250e-04
 Reference value :  1.74251e-04
 Reference value :  1.74253e-04
 Reference value :  1.74255e-04
 Reference value :  1.74259e-04
 Reference value :  1.74375e-04
 Reference value :  1.74500e-04
 Reference value :  1.74500e-04
 Reference value :  1.74501e-04
 Reference value :  1.74502e-04
 Reference value :  1.74504e-04
 Reference value :  1.74506e-04
 Reference value :  1.74508e-04
 Reference value :  1.74511e-04
 Reference value :  1.74579e-04
 Reference value :  1.74750e-04
 Reference value :  1.74750e-04
 Reference value :  1.74751e-04
 Reference value :  1.74753e-04
 Reference value :  1.74754e-04
 Reference value :  1.74756e-04
 Reference value :  1.74760e-04
 Reference value :  1.74789e-04
 Reference value :  1.75000e-04
 Reference value :  1.75000e-04
 Reference value :  1.75000e-04
 Reference value :  1.75001e-04
 Reference value :  1.75002e-04
 Reference value :  1.75004e-04
 Reference value :  1.75005e-04
 Reference value :  1.75007e-04
 Reference value :  1.75009e-04
 Reference value :  1.75011e-04
 Reference value :  1.75014e-04
 Reference value :  1.75017e-04
 Reference value :  1.75029e-04
 Reference value :  1.75056e-04
 Reference value :  1.75112e-04
 Reference value :  1.75188e-04
 Reference value :  1.75250e-04
 Reference value :  1.75250e-04
 Reference value :  1.75251e-04
 Reference value :  1.75252e-04
 Reference value :  1.75253e-04
 Reference value :  1.75255e-04
 Reference value :  1.75262e-04
 Reference value :  1.75376e-04
 Reference value :  1.75500e-04
 Reference value :  1.75500e-04
 Reference value :  1.75501e-04
 Reference value :  1.75502e-04
 Reference value :  1.75503e-04
 Reference value :  1.75504e-04
 Reference value :  1.75506e-04
 Reference value :  1.75507e-04
 Reference value :  1.75510e-04
 Reference value :  1.75514e-04
 Reference value :  1.75579e-04
 Reference value :  1.75750e-04
 Reference value :  1.75750e-04
 Reference value :  1.75750e-04
 Reference value :  1.75751e-04
 Reference value :  1.75752e-04
 Reference value :  1.75753e-04
 Reference value :  1.75754e-04
 Reference value :  1.75757e-04
 Reference value :  1.75760e-04
 Reference value :  1.75790e-04
 Reference value :  1.76000e-04
 Reference value :  1.76000e-04
 Reference value :  1.76000e-04
 Reference value :  1.76001e-04
 Reference value :  1.76001e-04
 Reference value :  1.76002e-04
 Reference value :  1.76004e-04
 Reference value :  1.76005e-04
 Reference value :  1.76008e-04
 Reference value :  1.76009e-04
 Reference value :  1.76011e-04
 Reference value :  1.76013e-04
 Reference value :  1.76014e-04
 Reference value :  1.76017e-04
 Reference value :  1.76020e-04
 Reference value :  1.76051e-04
 Reference value :  1.76159e-04
 Reference value :  1.76250e-04
 Reference value :  1.76250e-04
 Reference value :  1.76250e-04
 Reference value :  1.76251e-04
 Reference value :  1.76252e-04
 Reference value :  1.76253e-04
 Reference value :  1.76255e-04
 Reference value :  1.76259e-04
 Reference value :  1.76375e-04
 Reference value :  1.76500e-04
 Reference value :  1.76500e-04
 Reference value :  1.76501e-04
 Reference value :  1.76502e-04
 Reference value :  1.76503e-04
 Reference value :  1.76505e-04
 Reference value :  1.76506e-04
 Reference value :  1.76508e-04
 Reference value :  1.76511e-04
 Reference value :  1.76532e-04
 Reference value :  1.76750e-04
 Reference value :  1.76750e-04
 Reference value :  1.76750e-04
 Reference value :  1.76751e-04
 Reference value :  1.76752e-04
 Reference value :  1.76753e-04
 Reference value :  1.76754e-04
 Reference value :  1.76757e-04
 Reference value :  1.76760e-04
 Reference value :  1.76819e-04
 Reference value :  1.77000e-04
 Reference value :  1.77000e-04
 Reference value :  1.77000e-04
 Reference value :  1.77001e-04
 Reference value :  1.77002e-04
 Reference value :  1.77003e-04
 Reference value :  1.77004e-04
 Reference value :  1.77005e-04
 Reference value :  1.77008e-04
 Reference value :  1.77010e-04
 Reference value :  1.77013e-04
 Reference value :  1.77015e-04
 Reference value :  1.77021e-04
 Reference value :  1.77050e-04
 Reference value :  1.77250e-04
 Reference value :  1.77250e-04
 Reference value :  1.77251e-04
 Reference value :  1.77252e-04
 Reference value :  1.77253e-04
 Reference value :  1.77257e-04
 Reference value :  1.77273e-04
 Reference value :  1.77500e-04
 Reference value :  1.77500e-04
 Reference value :  1.77500e-04
 Reference value :  1.77502e-04
 Reference value :  1.77503e-04
 Reference value :  1.77505e-04
 Reference value :  1.77506e-04
 Reference value :  1.77508e-04
 Reference value :  1.77511e-04
 Reference value :  1.77579e-04
 Reference value :  1.77750e-04
 Reference value :  1.77750e-04
 Reference value :  1.77750e-04
 Reference value :  1.77751e-04
 Reference value :  1.77753e-04
 Reference value :  1.77754e-04
 Reference value :  1.77757e-04
 Reference value :  1.77767e-04
 Reference value :  1.78000e-04
 Reference value :  1.78000e-04
 Reference value :  1.78001e-04
 Reference value :  1.78002e-04
 Reference value :  1.78003e-04
 Reference value :  1.78005e-04
 Reference value :  1.78007e-04
 Reference value :  1.78010e-04
 Reference value :  1.78017e-04
 Reference value :  1.78050e-04
 Reference value :  1.78060e-04
 Reference value :  1.78067e-04
 Reference value :  1.78119e-04
 Reference value :  1.78250e-04
 Reference value :  1.78250e-04
 Reference value :  1.78250e-04
 Reference value :  1.78251e-04
 Reference value :  1.78252e-04
 Reference value :  1.78255e-04
 Reference value :  1.78256e-04
 Reference value :  1.78259e-04
 Reference value :  1.78275e-04
 Reference value :  1.78500e-04
No. of Data Rows : 26076
ngspice-44 done
