
Note: Compatibility modes selected: hs a


Circuit: ** sch_path: /home/audrey/cace/sar-adc-using-sky130-pdk/runs/run_2025-08-29_17-09-40/parameters/power/run_07/power_consumption.sch

option SCALE: Scale is set to 1e-06 for instance and model parameters
option SCALE: Scale is set to 1e-06 for instance and model parameters
option SCALE: Scale is set to 1e-06 for instance and model parameters
option SCALE: Scale is set to 1e-06 for instance and model parameters
Doing analysis at TEMP = 27.000000 and TNOM = 27.000000

Using KLU as Direct Linear Solver
Operating point simulation skipped by 'uic',
  now using transient initial conditions.
 Reference value :  5.00000e-12
 Reference value :  5.42000e-12
 Reference value :  7.10000e-12
 Reference value :  1.15995e-11
 Reference value :  2.26479e-11
 Reference value :  3.55379e-11
 Reference value :  6.13179e-11
 Reference value :  1.12878e-10
 Reference value :  2.01925e-10
 Reference value :  3.62360e-10
 Reference value :  5.15280e-10
 Reference value :  5.45840e-10
 Reference value :  7.29198e-10
 Reference value :  1.27201e-09
 Reference value :  2.15993e-09
 Reference value :  3.50358e-09
 Reference value :  4.40071e-09
 Reference value :  6.79701e-09
 Reference value :  7.75515e-09
 Reference value :  9.67291e-09
 Reference value :  1.17133e-08
 Reference value :  1.29105e-08
 Reference value :  1.37798e-08
 Reference value :  1.54509e-08
 Reference value :  1.81410e-08
 Reference value :  2.36631e-08
 Reference value :  3.44501e-08
 Reference value :  4.48470e-08
 Reference value :  6.77286e-08
 Reference value :  1.51243e-07
 Reference value :  3.02170e-07
 Reference value :  3.71809e-07
 Reference value :  4.12088e-07
 Reference value :  5.00000e-07
 Reference value :  5.14254e-07
 Reference value :  5.47229e-07
 Reference value :  6.99153e-07
 Reference value :  1.00055e-06
 Reference value :  1.00085e-06
 Reference value :  1.00100e-06
 Reference value :  1.00121e-06
 Reference value :  1.00158e-06
 Reference value :  1.00242e-06
 Reference value :  1.00344e-06
 Reference value :  1.00467e-06
 Reference value :  1.00588e-06
 Reference value :  1.00669e-06
 Reference value :  1.00747e-06
 Reference value :  1.01283e-06
 Reference value :  1.02231e-06
 Reference value :  1.05050e-06
 Reference value :  1.13726e-06
 Reference value :  1.45663e-06
 Reference value :  2.00000e-06
 Reference value :  2.00015e-06
 Reference value :  2.00050e-06
 Reference value :  2.00053e-06
 Reference value :  2.00074e-06
 Reference value :  2.00139e-06
 Reference value :  2.00179e-06
 Reference value :  2.00217e-06
 Reference value :  2.00312e-06
 Reference value :  2.00512e-06
 Reference value :  2.00725e-06
 Reference value :  2.00996e-06
 Reference value :  2.01121e-06
 Reference value :  2.01272e-06
 Reference value :  2.01439e-06
 Reference value :  2.01794e-06
 Reference value :  2.02363e-06
 Reference value :  2.05356e-06
 Reference value :  2.26892e-06
 Reference value :  3.00050e-06
 Reference value :  3.00065e-06
 Reference value :  3.00100e-06
 Reference value :  3.00110e-06
 Reference value :  3.00178e-06
 Reference value :  3.00219e-06
 Reference value :  3.00265e-06
 Reference value :  3.00378e-06
 Reference value :  3.00430e-06
 Reference value :  3.00548e-06
 Reference value :  3.00684e-06
 Reference value :  3.00846e-06
 Reference value :  3.00946e-06
 Reference value :  3.01223e-06
 Reference value :  3.01737e-06
 Reference value :  3.03026e-06
 Reference value :  3.06273e-06
 Reference value :  3.26911e-06
 Reference value :  4.00000e-06
 Reference value :  4.00015e-06
 Reference value :  4.00050e-06
 Reference value :  4.00060e-06
 Reference value :  4.00139e-06
 Reference value :  4.00221e-06
 Reference value :  4.00321e-06
 Reference value :  4.00429e-06
 Reference value :  4.00544e-06
 Reference value :  4.00613e-06
 Reference value :  4.00760e-06
 Reference value :  4.00969e-06
 Reference value :  4.01185e-06
 Reference value :  4.01384e-06
 Reference value :  4.01563e-06
 Reference value :  4.01761e-06
 Reference value :  4.02000e-06
 Reference value :  4.02397e-06
 Reference value :  4.05080e-06
 Reference value :  4.11320e-06
 Reference value :  4.14489e-06
 Reference value :  4.16645e-06
 Reference value :  4.18249e-06
 Reference value :  4.21803e-06
 Reference value :  4.25841e-06
 Reference value :  4.35315e-06
 Reference value :  4.54924e-06
 Reference value :  4.84625e-06
 Reference value :  5.00065e-06
 Reference value :  5.00100e-06
 Reference value :  5.00110e-06
 Reference value :  5.00151e-06
 Reference value :  5.00219e-06
 Reference value :  5.00314e-06
 Reference value :  5.00434e-06
 Reference value :  5.00555e-06
 Reference value :  5.00710e-06
 Reference value :  5.01199e-06
 Reference value :  5.03642e-06
 Reference value :  5.12021e-06
 Reference value :  5.90223e-06
 Reference value :  6.00015e-06
 Reference value :  6.00050e-06
 Reference value :  6.00060e-06
 Reference value :  6.00139e-06
 Reference value :  6.00221e-06
 Reference value :  6.00320e-06
 Reference value :  6.00441e-06
 Reference value :  6.00598e-06
 Reference value :  6.00682e-06
 Reference value :  6.00874e-06
 Reference value :  6.01093e-06
 Reference value :  6.01818e-06
 Reference value :  6.05924e-06
 Reference value :  6.66034e-06
 Reference value :  7.00055e-06
 Reference value :  7.00085e-06
 Reference value :  7.00103e-06
 Reference value :  7.00124e-06
 Reference value :  7.00178e-06
 Reference value :  7.00219e-06
 Reference value :  7.00314e-06
 Reference value :  7.00431e-06
 Reference value :  7.00547e-06
 Reference value :  7.00682e-06
 Reference value :  7.00923e-06
 Reference value :  7.01433e-06
 Reference value :  7.02957e-06
 Reference value :  7.09053e-06
 Reference value :  7.65949e-06
 Reference value :  8.00015e-06
 Reference value :  8.00060e-06
 Reference value :  8.00139e-06
 Reference value :  8.00221e-06
 Reference value :  8.00321e-06
 Reference value :  8.00428e-06
 Reference value :  8.00540e-06
 Reference value :  8.00663e-06
 Reference value :  8.00845e-06
 Reference value :  8.01003e-06
 Reference value :  8.01294e-06
 Reference value :  8.01507e-06
 Reference value :  8.01721e-06
 Reference value :  8.01946e-06
 Reference value :  8.02569e-06
 Reference value :  8.05326e-06
 Reference value :  8.16234e-06
 Reference value :  8.26650e-06
 Reference value :  8.36908e-06
 Reference value :  8.54603e-06
 Reference value :  9.00055e-06
 Reference value :  9.00100e-06
 Reference value :  9.00110e-06
 Reference value :  9.00178e-06
 Reference value :  9.00266e-06
 Reference value :  9.00381e-06
 Reference value :  9.00434e-06
 Reference value :  9.00554e-06
 Reference value :  9.00709e-06
 Reference value :  9.00971e-06
 Reference value :  9.02243e-06
 Reference value :  9.11998e-06
 Reference value :  9.90037e-06
 Reference value :  1.00001e-05
 Reference value :  1.00005e-05
 Reference value :  1.00010e-05
 Reference value :  1.00018e-05
 Reference value :  1.00027e-05
 Reference value :  1.00038e-05
 Reference value :  1.00050e-05
 Reference value :  1.00060e-05
 Reference value :  1.00068e-05
 Reference value :  1.00087e-05
 Reference value :  1.00109e-05
 Reference value :  1.00146e-05
 Reference value :  1.00594e-05
 Reference value :  1.03418e-05
 Reference value :  1.10005e-05
 Reference value :  1.10010e-05
 Reference value :  1.10011e-05
 Reference value :  1.10018e-05
 Reference value :  1.10027e-05
 Reference value :  1.10038e-05
 Reference value :  1.10043e-05
 Reference value :  1.10055e-05
 Reference value :  1.10068e-05
 Reference value :  1.10112e-05
 Reference value :  1.10296e-05
 Reference value :  1.11716e-05
 Reference value :  1.20000e-05
 Reference value :  1.20003e-05
 Reference value :  1.20005e-05
 Reference value :  1.20010e-05
 Reference value :  1.20018e-05
 Reference value :  1.20022e-05
 Reference value :  1.20032e-05
 Reference value :  1.20043e-05
 Reference value :  1.20054e-05
 Reference value :  1.20060e-05
 Reference value :  1.20084e-05
 Reference value :  1.20116e-05
 Reference value :  1.20129e-05
 Reference value :  1.20151e-05
 Reference value :  1.20162e-05
 Reference value :  1.20172e-05
 Reference value :  1.20183e-05
 Reference value :  1.20210e-05
 Reference value :  1.20257e-05
 Reference value :  1.20349e-05
 Reference value :  1.20424e-05
 Reference value :  1.20494e-05
 Reference value :  1.20558e-05
 Reference value :  1.20651e-05
 Reference value :  1.20772e-05
 Reference value :  1.20950e-05
 Reference value :  1.21904e-05
 Reference value :  1.22550e-05
 Reference value :  1.24822e-05
 Reference value :  1.30005e-05
 Reference value :  1.30007e-05
 Reference value :  1.30010e-05
 Reference value :  1.30011e-05
 Reference value :  1.30015e-05
 Reference value :  1.30018e-05
 Reference value :  1.30022e-05
 Reference value :  1.30027e-05
 Reference value :  1.30031e-05
 Reference value :  1.30038e-05
 Reference value :  1.30043e-05
 Reference value :  1.30049e-05
 Reference value :  1.30054e-05
 Reference value :  1.30069e-05
 Reference value :  1.30095e-05
 Reference value :  1.30148e-05
 Reference value :  1.30335e-05
 Reference value :  1.31086e-05
 Reference value :  1.38089e-05
 Reference value :  1.40000e-05
 Reference value :  1.40004e-05
 Reference value :  1.40005e-05
 Reference value :  1.40010e-05
 Reference value :  1.40014e-05
 Reference value :  1.40022e-05
 Reference value :  1.40031e-05
 Reference value :  1.40044e-05
 Reference value :  1.40061e-05
 Reference value :  1.40069e-05
 Reference value :  1.40078e-05
 Reference value :  1.40097e-05
 Reference value :  1.40189e-05
 Reference value :  1.41382e-05
 Reference value :  1.49833e-05
 Reference value :  1.50005e-05
 Reference value :  1.50010e-05
 Reference value :  1.50015e-05
 Reference value :  1.50022e-05
 Reference value :  1.50031e-05
 Reference value :  1.50043e-05
 Reference value :  1.50055e-05
 Reference value :  1.50068e-05
 Reference value :  1.50084e-05
 Reference value :  1.50105e-05
 Reference value :  1.50173e-05
 Reference value :  1.50420e-05
 Reference value :  1.51413e-05
 Reference value :  1.58561e-05
 Reference value :  1.60001e-05
 Reference value :  1.60005e-05
 Reference value :  1.60007e-05
 Reference value :  1.60014e-05
 Reference value :  1.60022e-05
 Reference value :  1.60032e-05
 Reference value :  1.60043e-05
 Reference value :  1.60054e-05
 Reference value :  1.60076e-05
 Reference value :  1.60108e-05
 Reference value :  1.60130e-05
 Reference value :  1.60147e-05
 Reference value :  1.60167e-05
 Reference value :  1.60189e-05
 Reference value :  1.60241e-05
 Reference value :  1.60448e-05
 Reference value :  1.60737e-05
 Reference value :  1.61302e-05
 Reference value :  1.61568e-05
 Reference value :  1.61792e-05
 Reference value :  1.62975e-05
 Reference value :  1.70005e-05
 Reference value :  1.70009e-05
 Reference value :  1.70011e-05
 Reference value :  1.70014e-05
 Reference value :  1.70026e-05
 Reference value :  1.70045e-05
 Reference value :  1.70050e-05
 Reference value :  1.70070e-05
 Reference value :  1.70095e-05
 Reference value :  1.70149e-05
 Reference value :  1.70545e-05
 Reference value :  1.73653e-05
 Reference value :  1.80001e-05
 Reference value :  1.80005e-05
 Reference value :  1.80006e-05
 Reference value :  1.80010e-05
 Reference value :  1.80020e-05
 Reference value :  1.80025e-05
 Reference value :  1.80035e-05
 Reference value :  1.80042e-05
 Reference value :  1.80055e-05
 Reference value :  1.80071e-05
 Reference value :  1.80088e-05
 Reference value :  1.80118e-05
 Reference value :  1.80186e-05
 Reference value :  1.80797e-05
 Reference value :  1.85104e-05
 Reference value :  1.90007e-05
 Reference value :  1.90010e-05
 Reference value :  1.90012e-05
 Reference value :  1.90017e-05
 Reference value :  1.90026e-05
 Reference value :  1.90045e-05
 Reference value :  1.90050e-05
 Reference value :  1.90071e-05
 Reference value :  1.90088e-05
 Reference value :  1.90127e-05
 Reference value :  1.90234e-05
 Reference value :  1.90440e-05
 Reference value :  1.91485e-05
 Reference value :  1.94701e-05
 Reference value :  2.00001e-05
 Reference value :  2.00005e-05
 Reference value :  2.00006e-05
 Reference value :  2.00007e-05
 Reference value :  2.00015e-05
 Reference value :  2.00025e-05
 Reference value :  2.00035e-05
 Reference value :  2.00046e-05
 Reference value :  2.00056e-05
 Reference value :  2.00085e-05
 Reference value :  2.00117e-05
 Reference value :  2.00137e-05
 Reference value :  2.00167e-05
 Reference value :  2.00190e-05
 Reference value :  2.00246e-05
 Reference value :  2.00350e-05
 Reference value :  2.00453e-05
 Reference value :  2.00526e-05
 Reference value :  2.00595e-05
 Reference value :  2.00845e-05
 Reference value :  2.01571e-05
 Reference value :  2.01899e-05
 Reference value :  2.02435e-05
 Reference value :  2.02941e-05
 Reference value :  2.03436e-05
 Reference value :  2.04228e-05
 Reference value :  2.06392e-05
 Reference value :  2.10005e-05
 Reference value :  2.10006e-05
 Reference value :  2.10010e-05
 Reference value :  2.10011e-05
 Reference value :  2.10014e-05
 Reference value :  2.10021e-05
 Reference value :  2.10026e-05
 Reference value :  2.10031e-05
 Reference value :  2.10044e-05
 Reference value :  2.10050e-05
 Reference value :  2.10062e-05
 Reference value :  2.10071e-05
 Reference value :  2.10080e-05
 Reference value :  2.10120e-05
 Reference value :  2.10601e-05
 Reference value :  2.14069e-05
 Reference value :  2.20000e-05
 Reference value :  2.20005e-05
 Reference value :  2.20007e-05
 Reference value :  2.20020e-05
 Reference value :  2.20030e-05
 Reference value :  2.20042e-05
 Reference value :  2.20055e-05
 Reference value :  2.20071e-05
 Reference value :  2.20088e-05
 Reference value :  2.20118e-05
 Reference value :  2.20186e-05
 Reference value :  2.20488e-05
 Reference value :  2.22631e-05
 Reference value :  2.30005e-05
 Reference value :  2.30006e-05
 Reference value :  2.30010e-05
 Reference value :  2.30010e-05
 Reference value :  2.30012e-05
 Reference value :  2.30014e-05
 Reference value :  2.30021e-05
 Reference value :  2.30031e-05
 Reference value :  2.30045e-05
 Reference value :  2.30050e-05
 Reference value :  2.30056e-05
 Reference value :  2.30071e-05
 Reference value :  2.30088e-05
 Reference value :  2.30127e-05
 Reference value :  2.30234e-05
 Reference value :  2.30439e-05
 Reference value :  2.30947e-05
 Reference value :  2.32534e-05
 Reference value :  2.38882e-05
 Reference value :  2.40001e-05
 Reference value :  2.40004e-05
 Reference value :  2.40005e-05
 Reference value :  2.40005e-05
 Reference value :  2.40006e-05
 Reference value :  2.40010e-05
 Reference value :  2.40015e-05
 Reference value :  2.40025e-05
 Reference value :  2.40035e-05
 Reference value :  2.40041e-05
 Reference value :  2.40046e-05
 Reference value :  2.40056e-05
 Reference value :  2.40068e-05
 Reference value :  2.40085e-05
 Reference value :  2.40098e-05
 Reference value :  2.40107e-05
 Reference value :  2.40128e-05
 Reference value :  2.40137e-05
 Reference value :  2.40156e-05
 Reference value :  2.40177e-05
 Reference value :  2.40203e-05
 Reference value :  2.40246e-05
 Reference value :  2.40268e-05
 Reference value :  2.40291e-05
 Reference value :  2.40333e-05
 Reference value :  2.40399e-05
 Reference value :  2.40560e-05
 Reference value :  2.41007e-05
 Reference value :  2.42264e-05
 Reference value :  2.45258e-05
 Reference value :  2.50005e-05
 Reference value :  2.50008e-05
 Reference value :  2.50010e-05
 Reference value :  2.50010e-05
 Reference value :  2.50011e-05
 Reference value :  2.50012e-05
 Reference value :  2.50014e-05
 Reference value :  2.50021e-05
 Reference value :  2.50026e-05
 Reference value :  2.50031e-05
 Reference value :  2.50038e-05
 Reference value :  2.50045e-05
 Reference value :  2.50050e-05
 Reference value :  2.50063e-05
 Reference value :  2.50079e-05
 Reference value :  2.50118e-05
 Reference value :  2.50212e-05
 Reference value :  2.50566e-05
 Reference value :  2.51967e-05
 Reference value :  2.57569e-05
 Reference value :  2.60002e-05
 Reference value :  2.60004e-05
 Reference value :  2.60005e-05
 Reference value :  2.60006e-05
 Reference value :  2.60015e-05
 Reference value :  2.60025e-05
 Reference value :  2.60035e-05
 Reference value :  2.60047e-05
 Reference value :  2.60062e-05
 Reference value :  2.60068e-05
 Reference value :  2.60086e-05
 Reference value :  2.60104e-05
 Reference value :  2.60115e-05
 Reference value :  2.60151e-05
 Reference value :  2.60267e-05
 Reference value :  2.60689e-05
 Reference value :  2.64507e-05
 Reference value :  2.70006e-05
 Reference value :  2.70010e-05
 Reference value :  2.70011e-05
 Reference value :  2.70014e-05
 Reference value :  2.70021e-05
 Reference value :  2.70031e-05
 Reference value :  2.70045e-05
 Reference value :  2.70050e-05
 Reference value :  2.70056e-05
 Reference value :  2.70071e-05
 Reference value :  2.70095e-05
 Reference value :  2.70152e-05
 Reference value :  2.70567e-05
 Reference value :  2.71924e-05
 Reference value :  2.80000e-05
 Reference value :  2.80004e-05
 Reference value :  2.80005e-05
 Reference value :  2.80007e-05
 Reference value :  2.80010e-05
 Reference value :  2.80015e-05
 Reference value :  2.80025e-05
 Reference value :  2.80035e-05
 Reference value :  2.80046e-05
 Reference value :  2.80052e-05
 Reference value :  2.80056e-05
 Reference value :  2.80062e-05
 Reference value :  2.80069e-05
 Reference value :  2.80076e-05
 Reference value :  2.80090e-05
 Reference value :  2.80106e-05
 Reference value :  2.80120e-05
 Reference value :  2.80135e-05
 Reference value :  2.80146e-05
 Reference value :  2.80155e-05
 Reference value :  2.80166e-05
 Reference value :  2.80177e-05
 Reference value :  2.80190e-05
 Reference value :  2.80223e-05
 Reference value :  2.80296e-05
 Reference value :  2.80464e-05
 Reference value :  2.80671e-05
 Reference value :  2.82100e-05
 Reference value :  2.90005e-05
 Reference value :  2.90006e-05
 Reference value :  2.90009e-05
 Reference value :  2.90010e-05
 Reference value :  2.90010e-05
 Reference value :  2.90011e-05
 Reference value :  2.90014e-05
 Reference value :  2.90017e-05
 Reference value :  2.90026e-05
 Reference value :  2.90031e-05
 Reference value :  2.90038e-05
 Reference value :  2.90050e-05
 Reference value :  2.90057e-05
 Reference value :  2.90071e-05
 Reference value :  2.90096e-05
 Reference value :  2.90214e-05
 Reference value :  2.90571e-05
 Reference value :  2.93858e-05
 Reference value :  3.00000e-05
 Reference value :  3.00002e-05
 Reference value :  3.00004e-05
 Reference value :  3.00005e-05
 Reference value :  3.00006e-05
 Reference value :  3.00010e-05
 Reference value :  3.00015e-05
 Reference value :  3.00020e-05
 Reference value :  3.00025e-05
 Reference value :  3.00035e-05
 Reference value :  3.00041e-05
 Reference value :  3.00047e-05
 Reference value :  3.00062e-05
 Reference value :  3.00068e-05
 Reference value :  3.00076e-05
 Reference value :  3.00095e-05
 Reference value :  3.00104e-05
 Reference value :  3.00127e-05
 Reference value :  3.00192e-05
 Reference value :  3.00415e-05
 Reference value :  3.02315e-05
 Reference value :  3.08828e-05
 Reference value :  3.10005e-05
 Reference value :  3.10006e-05
 Reference value :  3.10010e-05
 Reference value :  3.10011e-05
 Reference value :  3.10014e-05
 Reference value :  3.10021e-05
 Reference value :  3.10031e-05
 Reference value :  3.10045e-05
 Reference value :  3.10050e-05
 Reference value :  3.10063e-05
 Reference value :  3.10079e-05
 Reference value :  3.10118e-05
 Reference value :  3.10213e-05
 Reference value :  3.10336e-05
 Reference value :  3.11925e-05
 Reference value :  3.20000e-05
 Reference value :  3.20003e-05
 Reference value :  3.20005e-05
 Reference value :  3.20007e-05
 Reference value :  3.20015e-05
 Reference value :  3.20025e-05
 Reference value :  3.20035e-05
 Reference value :  3.20046e-05
 Reference value :  3.20056e-05
 Reference value :  3.20076e-05
 Reference value :  3.20091e-05
 Reference value :  3.20132e-05
 Reference value :  3.20695e-05
 Reference value :  3.30005e-05
 Reference value :  3.30009e-05
 Reference value :  3.30011e-05
 Reference value :  3.30015e-05
 Reference value :  3.30027e-05
 Reference value :  3.30046e-05
 Reference value :  3.30075e-05
 Reference value :  3.30134e-05
 Reference value :  3.30780e-05
 Reference value :  3.40000e-05
No. of Data Rows : 1264
ngspice-44 done
