
Note: Compatibility modes selected: hs a


Circuit: ** sch_path: /home/ece/cace/sar-adc-using-sky130-pdk/runs/run_2025-09-12_20-59-33/parameters/dnl/run_0/sar_output_dnl.sch

option SCALE: Scale is set to 1e-06 for instance and model parameters
option SCALE: Scale is set to 1e-06 for instance and model parameters
option SCALE: Scale is set to 1e-06 for instance and model parameters
option SCALE: Scale is set to 1e-06 for instance and model parameters
Doing analysis at TEMP = 27.000000 and TNOM = 27.000000

Using KLU as Direct Linear Solver
Operating point simulation skipped by 'uic',
  now using transient initial conditions.
 Reference value :  1.00000e-12
 Reference value :  1.69449e-12
 Reference value :  1.98585e-11
 Reference value :  1.15088e-10
 Reference value :  6.76357e-10
 Reference value :  2.47171e-09
 Reference value :  6.14112e-09
 Reference value :  8.19299e-09
 Reference value :  1.10408e-08
 Reference value :  1.28217e-08
 Reference value :  1.78854e-08
 Reference value :  3.05281e-08
 Reference value :  6.24647e-08
 Reference value :  2.50100e-07
 Reference value :  2.50200e-07
 Reference value :  2.50315e-07
 Reference value :  2.51035e-07
 Reference value :  2.52374e-07
 Reference value :  2.53667e-07
 Reference value :  2.54810e-07
 Reference value :  2.58433e-07
 Reference value :  4.22483e-07
 Reference value :  5.00108e-07
 Reference value :  5.00864e-07
 Reference value :  5.02312e-07
 Reference value :  5.03938e-07
 Reference value :  5.07767e-07
 Reference value :  5.11668e-07
 Reference value :  5.14669e-07
 Reference value :  5.20955e-07
 Reference value :  5.59454e-07
 Reference value :  7.50130e-07
 Reference value :  7.50224e-07
 Reference value :  7.50698e-07
 Reference value :  7.52060e-07
 Reference value :  7.53359e-07
 Reference value :  7.54453e-07
 Reference value :  7.55631e-07
 Reference value :  7.59058e-07
 Reference value :  8.13737e-07
 Reference value :  1.00003e-06
 Reference value :  1.00012e-06
 Reference value :  1.00052e-06
 Reference value :  1.00182e-06
 Reference value :  1.00332e-06
 Reference value :  1.00521e-06
 Reference value :  1.00651e-06
 Reference value :  1.00976e-06
 Reference value :  1.01279e-06
 Reference value :  1.01496e-06
 Reference value :  1.01716e-06
 Reference value :  1.02313e-06
 Reference value :  1.03849e-06
 Reference value :  1.05974e-06
 Reference value :  1.07544e-06
 Reference value :  1.11539e-06
 Reference value :  1.25011e-06
 Reference value :  1.25022e-06
 Reference value :  1.25070e-06
 Reference value :  1.25151e-06
 Reference value :  1.25327e-06
 Reference value :  1.25377e-06
 Reference value :  1.25497e-06
 Reference value :  1.25939e-06
 Reference value :  1.28562e-06
 Reference value :  1.50001e-06
 Reference value :  1.50010e-06
 Reference value :  1.50022e-06
 Reference value :  1.50086e-06
 Reference value :  1.50175e-06
 Reference value :  1.50322e-06
 Reference value :  1.50442e-06
 Reference value :  1.50604e-06
 Reference value :  1.50673e-06
 Reference value :  1.50840e-06
 Reference value :  1.51032e-06
 Reference value :  1.51146e-06
 Reference value :  1.51872e-06
 Reference value :  1.55620e-06
 Reference value :  1.75010e-06
 Reference value :  1.75017e-06
 Reference value :  1.75022e-06
 Reference value :  1.75045e-06
 Reference value :  1.75156e-06
 Reference value :  1.75335e-06
 Reference value :  1.75444e-06
 Reference value :  1.75561e-06
 Reference value :  1.75737e-06
 Reference value :  1.76065e-06
 Reference value :  1.77615e-06
 Reference value :  1.99946e-06
 Reference value :  2.00007e-06
 Reference value :  2.00016e-06
 Reference value :  2.00052e-06
 Reference value :  2.00182e-06
 Reference value :  2.00334e-06
 Reference value :  2.00575e-06
 Reference value :  2.00726e-06
 Reference value :  2.01043e-06
 Reference value :  2.01351e-06
 Reference value :  2.01536e-06
 Reference value :  2.01856e-06
 Reference value :  2.03643e-06
 Reference value :  2.16887e-06
 Reference value :  2.23194e-06
 Reference value :  2.25017e-06
 Reference value :  2.25032e-06
 Reference value :  2.25151e-06
 Reference value :  2.25326e-06
 Reference value :  2.25437e-06
 Reference value :  2.25558e-06
 Reference value :  2.26190e-06
 Reference value :  2.36588e-06
 Reference value :  2.50007e-06
 Reference value :  2.50022e-06
 Reference value :  2.50131e-06
 Reference value :  2.50268e-06
 Reference value :  2.50442e-06
 Reference value :  2.50673e-06
 Reference value :  2.50937e-06
 Reference value :  2.51272e-06
 Reference value :  2.52507e-06
 Reference value :  2.59390e-06
 Reference value :  2.75011e-06
 Reference value :  2.75020e-06
 Reference value :  2.75026e-06
 Reference value :  2.75070e-06
 Reference value :  2.75150e-06
 Reference value :  2.75252e-06
 Reference value :  2.75378e-06
 Reference value :  2.75490e-06
 Reference value :  2.75627e-06
 Reference value :  2.75894e-06
 Reference value :  2.76410e-06
 Reference value :  2.78166e-06
 Reference value :  2.82083e-06
 Reference value :  3.00000e-06
 Reference value :  3.00007e-06
 Reference value :  3.00012e-06
 Reference value :  3.00034e-06
 Reference value :  3.00086e-06
 Reference value :  3.00182e-06
 Reference value :  3.00278e-06
 Reference value :  3.00393e-06
 Reference value :  3.00518e-06
 Reference value :  3.00575e-06
 Reference value :  3.00725e-06
 Reference value :  3.01043e-06
 Reference value :  3.01263e-06
 Reference value :  3.01437e-06
 Reference value :  3.01637e-06
 Reference value :  3.01857e-06
 Reference value :  3.02379e-06
 Reference value :  3.04797e-06
 Reference value :  3.05733e-06
 Reference value :  3.06422e-06
 Reference value :  3.07687e-06
 Reference value :  3.11033e-06
 Reference value :  3.25010e-06
 Reference value :  3.25017e-06
 Reference value :  3.25026e-06
 Reference value :  3.25070e-06
 Reference value :  3.25150e-06
 Reference value :  3.25326e-06
 Reference value :  3.25439e-06
 Reference value :  3.25560e-06
 Reference value :  3.26186e-06
 Reference value :  3.37062e-06
 Reference value :  3.50001e-06
 Reference value :  3.50010e-06
 Reference value :  3.50022e-06
 Reference value :  3.50086e-06
 Reference value :  3.50182e-06
 Reference value :  3.50278e-06
 Reference value :  3.50391e-06
 Reference value :  3.50549e-06
 Reference value :  3.50718e-06
 Reference value :  3.50888e-06
 Reference value :  3.51087e-06
 Reference value :  3.51425e-06
 Reference value :  3.54552e-06
 Reference value :  3.75010e-06
 Reference value :  3.75013e-06
 Reference value :  3.75021e-06
 Reference value :  3.75045e-06
 Reference value :  3.75101e-06
 Reference value :  3.75202e-06
 Reference value :  3.75325e-06
 Reference value :  3.75377e-06
 Reference value :  3.75490e-06
 Reference value :  3.75627e-06
 Reference value :  3.76088e-06
 Reference value :  3.85076e-06
 Reference value :  4.00003e-06
 Reference value :  4.00011e-06
 Reference value :  4.00022e-06
 Reference value :  4.00086e-06
 Reference value :  4.00182e-06
 Reference value :  4.00278e-06
 Reference value :  4.00332e-06
 Reference value :  4.00449e-06
 Reference value :  4.00584e-06
 Reference value :  4.00976e-06
 Reference value :  4.01389e-06
 Reference value :  4.01716e-06
 Reference value :  4.02311e-06
 Reference value :  4.04339e-06
 Reference value :  4.06072e-06
 Reference value :  4.09635e-06
 Reference value :  4.25013e-06
 Reference value :  4.25026e-06
 Reference value :  4.25101e-06
 Reference value :  4.25251e-06
 Reference value :  4.25376e-06
 Reference value :  4.25557e-06
 Reference value :  4.25924e-06
 Reference value :  4.28477e-06
 Reference value :  4.50000e-06
 Reference value :  4.50007e-06
 Reference value :  4.50016e-06
 Reference value :  4.50052e-06
 Reference value :  4.50175e-06
 Reference value :  4.50322e-06
 Reference value :  4.50521e-06
 Reference value :  4.50673e-06
 Reference value :  4.50840e-06
 Reference value :  4.51032e-06
 Reference value :  4.51514e-06
 Reference value :  4.55457e-06
 Reference value :  4.75011e-06
 Reference value :  4.75020e-06
 Reference value :  4.75026e-06
 Reference value :  4.75070e-06
 Reference value :  4.75150e-06
 Reference value :  4.75251e-06
 Reference value :  4.75377e-06
 Reference value :  4.75490e-06
 Reference value :  4.75627e-06
 Reference value :  4.75893e-06
 Reference value :  4.76407e-06
 Reference value :  4.79587e-06
 Reference value :  5.00000e-06
 Reference value :  5.00007e-06
 Reference value :  5.00016e-06
 Reference value :  5.00052e-06
 Reference value :  5.00182e-06
 Reference value :  5.00278e-06
 Reference value :  5.00393e-06
 Reference value :  5.00575e-06
 Reference value :  5.00817e-06
 Reference value :  5.01043e-06
 Reference value :  5.01263e-06
 Reference value :  5.01435e-06
 Reference value :  5.01752e-06
 Reference value :  5.02005e-06
 Reference value :  5.02699e-06
 Reference value :  5.02995e-06
 Reference value :  5.03399e-06
 Reference value :  5.04051e-06
 Reference value :  5.06412e-06
 Reference value :  5.11462e-06
 Reference value :  5.25011e-06
 Reference value :  5.25020e-06
 Reference value :  5.25032e-06
 Reference value :  5.25101e-06
 Reference value :  5.25202e-06
 Reference value :  5.25325e-06
 Reference value :  5.25439e-06
 Reference value :  5.25559e-06
 Reference value :  5.25927e-06
 Reference value :  5.27237e-06
 Reference value :  5.37072e-06
 Reference value :  5.50001e-06
 Reference value :  5.50007e-06
 Reference value :  5.50012e-06
 Reference value :  5.50034e-06
 Reference value :  5.50131e-06
 Reference value :  5.50231e-06
 Reference value :  5.50333e-06
 Reference value :  5.50455e-06
 Reference value :  5.50638e-06
 Reference value :  5.50718e-06
 Reference value :  5.50889e-06
 Reference value :  5.51087e-06
 Reference value :  5.52766e-06
 Reference value :  5.75010e-06
 Reference value :  5.75017e-06
 Reference value :  5.75021e-06
 Reference value :  5.75032e-06
 Reference value :  5.75070e-06
 Reference value :  5.75150e-06
 Reference value :  5.75251e-06
 Reference value :  5.75377e-06
 Reference value :  5.75490e-06
 Reference value :  5.75626e-06
 Reference value :  5.76411e-06
 Reference value :  5.85031e-06
 Reference value :  6.00003e-06
 Reference value :  6.00011e-06
 Reference value :  6.00022e-06
 Reference value :  6.00086e-06
 Reference value :  6.00231e-06
 Reference value :  6.00332e-06
 Reference value :  6.00521e-06
 Reference value :  6.00650e-06
 Reference value :  6.00976e-06
 Reference value :  6.01278e-06
 Reference value :  6.01389e-06
 Reference value :  6.01716e-06
 Reference value :  6.01946e-06
 Reference value :  6.02661e-06
 Reference value :  6.04605e-06
 Reference value :  6.05982e-06
 Reference value :  6.07402e-06
 Reference value :  6.13272e-06
 Reference value :  6.25011e-06
 Reference value :  6.25017e-06
 Reference value :  6.25022e-06
 Reference value :  6.25045e-06
 Reference value :  6.25101e-06
 Reference value :  6.25150e-06
 Reference value :  6.25251e-06
 Reference value :  6.25375e-06
 Reference value :  6.25493e-06
 Reference value :  6.25779e-06
 Reference value :  6.26522e-06
 Reference value :  6.31067e-06
 Reference value :  6.42871e-06
 Reference value :  6.50000e-06
 Reference value :  6.50003e-06
 Reference value :  6.50011e-06
 Reference value :  6.50022e-06
 Reference value :  6.50052e-06
 Reference value :  6.50131e-06
 Reference value :  6.50231e-06
 Reference value :  6.50333e-06
 Reference value :  6.50456e-06
 Reference value :  6.50550e-06
 Reference value :  6.50718e-06
 Reference value :  6.50888e-06
 Reference value :  6.51087e-06
 Reference value :  6.52772e-06
 Reference value :  6.71325e-06
 Reference value :  6.75020e-06
 Reference value :  6.75032e-06
 Reference value :  6.75101e-06
 Reference value :  6.75251e-06
 Reference value :  6.75377e-06
 Reference value :  6.75549e-06
 Reference value :  6.75711e-06
 Reference value :  6.78148e-06
 Reference value :  7.00000e-06
 Reference value :  7.00010e-06
 Reference value :  7.00022e-06
 Reference value :  7.00086e-06
 Reference value :  7.00231e-06
 Reference value :  7.00332e-06
 Reference value :  7.00521e-06
 Reference value :  7.00650e-06
 Reference value :  7.00976e-06
 Reference value :  7.01278e-06
 Reference value :  7.01496e-06
 Reference value :  7.01716e-06
 Reference value :  7.02139e-06
 Reference value :  7.03087e-06
 Reference value :  7.03928e-06
 Reference value :  7.04713e-06
 Reference value :  7.07240e-06
 Reference value :  7.14839e-06
 Reference value :  7.25013e-06
 Reference value :  7.25022e-06
 Reference value :  7.25070e-06
 Reference value :  7.25150e-06
 Reference value :  7.25325e-06
 Reference value :  7.25432e-06
 Reference value :  7.25638e-06
 Reference value :  7.27165e-06
 Reference value :  7.50000e-06
 Reference value :  7.50010e-06
 Reference value :  7.50022e-06
 Reference value :  7.50086e-06
 Reference value :  7.50223e-06
 Reference value :  7.50322e-06
 Reference value :  7.50521e-06
 Reference value :  7.50673e-06
 Reference value :  7.50840e-06
 Reference value :  7.51145e-06
 Reference value :  7.51854e-06
 Reference value :  7.59066e-06
 Reference value :  7.75011e-06
 Reference value :  7.75020e-06
 Reference value :  7.75026e-06
 Reference value :  7.75070e-06
 Reference value :  7.75150e-06
 Reference value :  7.75251e-06
 Reference value :  7.75377e-06
 Reference value :  7.75490e-06
 Reference value :  7.75626e-06
 Reference value :  7.75893e-06
 Reference value :  7.76405e-06
 Reference value :  7.78140e-06
 Reference value :  7.86585e-06
 Reference value :  8.00001e-06
 Reference value :  8.00007e-06
 Reference value :  8.00012e-06
 Reference value :  8.00034e-06
 Reference value :  8.00086e-06
 Reference value :  8.00182e-06
 Reference value :  8.00278e-06
 Reference value :  8.00393e-06
 Reference value :  8.00518e-06
 Reference value :  8.00575e-06
 Reference value :  8.00725e-06
 Reference value :  8.00890e-06
 Reference value :  8.01042e-06
 Reference value :  8.01495e-06
 Reference value :  8.02030e-06
 Reference value :  8.03801e-06
 Reference value :  8.06603e-06
 Reference value :  8.07628e-06
 Reference value :  8.11982e-06
 Reference value :  8.18861e-06
 Reference value :  8.25013e-06
 Reference value :  8.25022e-06
 Reference value :  8.25045e-06
 Reference value :  8.25101e-06
 Reference value :  8.25202e-06
 Reference value :  8.25324e-06
 Reference value :  8.25501e-06
 Reference value :  8.25696e-06
 Reference value :  8.26317e-06
 Reference value :  8.33462e-06
 Reference value :  8.50000e-06
 Reference value :  8.50000e-06
 Reference value :  8.50001e-06
 Reference value :  8.50010e-06
 Reference value :  8.50014e-06
 Reference value :  8.50072e-06
 Reference value :  8.50217e-06
 Reference value :  8.50388e-06
 Reference value :  8.50499e-06
 Reference value :  8.50830e-06
 Reference value :  8.52438e-06
 Reference value :  8.52875e-06
 Reference value :  8.53474e-06
 Reference value :  8.54394e-06
 Reference value :  8.57407e-06
 Reference value :  8.70687e-06
 Reference value :  8.75020e-06
 Reference value :  8.75070e-06
 Reference value :  8.75251e-06
 Reference value :  8.75437e-06
 Reference value :  8.75643e-06
 Reference value :  8.81306e-06
 Reference value :  9.00007e-06
 Reference value :  9.00035e-06
 Reference value :  9.00182e-06
 Reference value :  9.00332e-06
 Reference value :  9.00636e-06
 Reference value :  9.00891e-06
 Reference value :  9.01329e-06
 Reference value :  9.02121e-06
 Reference value :  9.25010e-06
 Reference value :  9.25021e-06
 Reference value :  9.25070e-06
 Reference value :  9.25202e-06
 Reference value :  9.25377e-06
 Reference value :  9.25548e-06
 Reference value :  9.26086e-06
 Reference value :  9.44200e-06
 Reference value :  9.50007e-06
 Reference value :  9.50016e-06
 Reference value :  9.50052e-06
 Reference value :  9.50182e-06
 Reference value :  9.50332e-06
 Reference value :  9.50521e-06
 Reference value :  9.50650e-06
 Reference value :  9.50977e-06
 Reference value :  9.51279e-06
 Reference value :  9.51496e-06
 Reference value :  9.51715e-06
 Reference value :  9.52135e-06
 Reference value :  9.53189e-06
 Reference value :  9.54592e-06
 Reference value :  9.56068e-06
 Reference value :  9.57114e-06
 Reference value :  9.58247e-06
 Reference value :  9.61805e-06
 Reference value :  9.71226e-06
 Reference value :  9.75013e-06
 Reference value :  9.75022e-06
 Reference value :  9.75070e-06
 Reference value :  9.75150e-06
 Reference value :  9.75325e-06
 Reference value :  9.75432e-06
 Reference value :  9.75556e-06
 Reference value :  9.75923e-06
 Reference value :  9.81058e-06
 Reference value :  1.00000e-05
 Reference value :  1.00001e-05
 Reference value :  1.00002e-05
 Reference value :  1.00005e-05
 Reference value :  1.00017e-05
 Reference value :  1.00032e-05
 Reference value :  1.00044e-05
 Reference value :  1.00052e-05
 Reference value :  1.00067e-05
 Reference value :  1.00094e-05
 Reference value :  1.00151e-05
 Reference value :  1.00905e-05
 Reference value :  1.02501e-05
 Reference value :  1.02503e-05
 Reference value :  1.02510e-05
 Reference value :  1.02525e-05
 Reference value :  1.02538e-05
 Reference value :  1.02549e-05
 Reference value :  1.02563e-05
 Reference value :  1.02602e-05
 Reference value :  1.02731e-05
 Reference value :  1.04605e-05
 Reference value :  1.05001e-05
 Reference value :  1.05002e-05
 Reference value :  1.05005e-05
 Reference value :  1.05018e-05
 Reference value :  1.05033e-05
 Reference value :  1.05052e-05
 Reference value :  1.05064e-05
 Reference value :  1.05093e-05
 Reference value :  1.05115e-05
 Reference value :  1.05135e-05
 Reference value :  1.05154e-05
 Reference value :  1.05186e-05
 Reference value :  1.05282e-05
 Reference value :  1.06233e-05
 Reference value :  1.07016e-05
 Reference value :  1.07501e-05
 Reference value :  1.07502e-05
 Reference value :  1.07503e-05
 Reference value :  1.07507e-05
 Reference value :  1.07515e-05
 Reference value :  1.07525e-05
 Reference value :  1.07538e-05
 Reference value :  1.07549e-05
 Reference value :  1.07577e-05
 Reference value :  1.07718e-05
 Reference value :  1.08654e-05
 Reference value :  1.10000e-05
 Reference value :  1.10001e-05
 Reference value :  1.10002e-05
 Reference value :  1.10005e-05
 Reference value :  1.10017e-05
 Reference value :  1.10027e-05
 Reference value :  1.10038e-05
 Reference value :  1.10052e-05
 Reference value :  1.10067e-05
 Reference value :  1.10084e-05
 Reference value :  1.10103e-05
 Reference value :  1.10115e-05
 Reference value :  1.10185e-05
 Reference value :  1.10540e-05
 Reference value :  1.12501e-05
 Reference value :  1.12501e-05
 Reference value :  1.12502e-05
 Reference value :  1.12503e-05
 Reference value :  1.12507e-05
 Reference value :  1.12515e-05
 Reference value :  1.12525e-05
 Reference value :  1.12538e-05
 Reference value :  1.12549e-05
 Reference value :  1.12563e-05
 Reference value :  1.12589e-05
 Reference value :  1.12641e-05
 Reference value :  1.12958e-05
 Reference value :  1.14598e-05
 Reference value :  1.15000e-05
 Reference value :  1.15001e-05
 Reference value :  1.15002e-05
 Reference value :  1.15009e-05
 Reference value :  1.15018e-05
 Reference value :  1.15028e-05
 Reference value :  1.15039e-05
 Reference value :  1.15052e-05
 Reference value :  1.15064e-05
 Reference value :  1.15093e-05
 Reference value :  1.15126e-05
 Reference value :  1.15154e-05
 Reference value :  1.15186e-05
 Reference value :  1.15363e-05
 Reference value :  1.15537e-05
 Reference value :  1.15637e-05
 Reference value :  1.15751e-05
 Reference value :  1.16269e-05
 Reference value :  1.17501e-05
 Reference value :  1.17503e-05
 Reference value :  1.17510e-05
 Reference value :  1.17525e-05
 Reference value :  1.17538e-05
 Reference value :  1.17556e-05
 Reference value :  1.17618e-05
 Reference value :  1.18145e-05
 Reference value :  1.20000e-05
 Reference value :  1.20001e-05
 Reference value :  1.20002e-05
 Reference value :  1.20009e-05
 Reference value :  1.20023e-05
 Reference value :  1.20039e-05
 Reference value :  1.20064e-05
 Reference value :  1.20080e-05
 Reference value :  1.20109e-05
 Reference value :  1.20276e-05
 Reference value :  1.21523e-05
 Reference value :  1.22501e-05
 Reference value :  1.22502e-05
 Reference value :  1.22503e-05
 Reference value :  1.22510e-05
 Reference value :  1.22515e-05
 Reference value :  1.22520e-05
 Reference value :  1.22533e-05
 Reference value :  1.22544e-05
 Reference value :  1.22549e-05
 Reference value :  1.22563e-05
 Reference value :  1.22609e-05
 Reference value :  1.23044e-05
 Reference value :  1.25000e-05
 Reference value :  1.25001e-05
 Reference value :  1.25001e-05
 Reference value :  1.25003e-05
 Reference value :  1.25013e-05
 Reference value :  1.25028e-05
 Reference value :  1.25045e-05
 Reference value :  1.25058e-05
 Reference value :  1.25084e-05
 Reference value :  1.25098e-05
 Reference value :  1.25128e-05
 Reference value :  1.25150e-05
 Reference value :  1.25172e-05
 Reference value :  1.25195e-05
 Reference value :  1.25266e-05
 Reference value :  1.25377e-05
 Reference value :  1.25440e-05
 Reference value :  1.25559e-05
 Reference value :  1.25671e-05
 Reference value :  1.25859e-05
 Reference value :  1.27040e-05
 Reference value :  1.27501e-05
 Reference value :  1.27502e-05
 Reference value :  1.27503e-05
 Reference value :  1.27510e-05
 Reference value :  1.27520e-05
 Reference value :  1.27533e-05
 Reference value :  1.27538e-05
 Reference value :  1.27549e-05
 Reference value :  1.27578e-05
 Reference value :  1.27652e-05
 Reference value :  1.28106e-05
 Reference value :  1.30000e-05
 Reference value :  1.30001e-05
 Reference value :  1.30001e-05
 Reference value :  1.30003e-05
 Reference value :  1.30009e-05
 Reference value :  1.30017e-05
 Reference value :  1.30032e-05
 Reference value :  1.30044e-05
 Reference value :  1.30060e-05
 Reference value :  1.30067e-05
 Reference value :  1.30084e-05
 Reference value :  1.30103e-05
 Reference value :  1.30127e-05
 Reference value :  1.30355e-05
 Reference value :  1.31638e-05
 Reference value :  1.32501e-05
 Reference value :  1.32502e-05
 Reference value :  1.32503e-05
 Reference value :  1.32507e-05
 Reference value :  1.32515e-05
 Reference value :  1.32525e-05
 Reference value :  1.32538e-05
 Reference value :  1.32549e-05
 Reference value :  1.32563e-05
 Reference value :  1.32579e-05
 Reference value :  1.32602e-05
 Reference value :  1.32641e-05
 Reference value :  1.32731e-05
 Reference value :  1.33197e-05
 Reference value :  1.35000e-05
 Reference value :  1.35001e-05
 Reference value :  1.35002e-05
 Reference value :  1.35009e-05
 Reference value :  1.35018e-05
 Reference value :  1.35033e-05
 Reference value :  1.35046e-05
 Reference value :  1.35058e-05
 Reference value :  1.35073e-05
 Reference value :  1.35104e-05
 Reference value :  1.35126e-05
 Reference value :  1.35135e-05
 Reference value :  1.35155e-05
 Reference value :  1.35175e-05
 Reference value :  1.35200e-05
 Reference value :  1.35245e-05
 Reference value :  1.35271e-05
 Reference value :  1.35329e-05
 Reference value :  1.35409e-05
 Reference value :  1.35577e-05
 Reference value :  1.35997e-05
 Reference value :  1.37501e-05
 Reference value :  1.37502e-05
 Reference value :  1.37503e-05
 Reference value :  1.37510e-05
 Reference value :  1.37520e-05
 Reference value :  1.37538e-05
 Reference value :  1.37550e-05
 Reference value :  1.37577e-05
 Reference value :  1.37864e-05
 Reference value :  1.40000e-05
 Reference value :  1.40001e-05
 Reference value :  1.40002e-05
 Reference value :  1.40009e-05
 Reference value :  1.40023e-05
 Reference value :  1.40039e-05
 Reference value :  1.40072e-05
 Reference value :  1.40089e-05
 Reference value :  1.40120e-05
 Reference value :  1.40811e-05
 Reference value :  1.42502e-05
 Reference value :  1.42503e-05
 Reference value :  1.42515e-05
 Reference value :  1.42538e-05
 Reference value :  1.42563e-05
 Reference value :  1.42813e-05
 Reference value :  1.45000e-05
 Reference value :  1.45001e-05
 Reference value :  1.45009e-05
 Reference value :  1.45028e-05
 Reference value :  1.45045e-05
 Reference value :  1.45065e-05
 Reference value :  1.45098e-05
 Reference value :  1.45139e-05
 Reference value :  1.45161e-05
 Reference value :  1.45182e-05
 Reference value :  1.45231e-05
 Reference value :  1.45385e-05
 Reference value :  1.45555e-05
 Reference value :  1.45738e-05
 Reference value :  1.45927e-05
 Reference value :  1.46880e-05
 Reference value :  1.47314e-05
 Reference value :  1.47501e-05
 Reference value :  1.47502e-05
 Reference value :  1.47503e-05
 Reference value :  1.47510e-05
 Reference value :  1.47520e-05
 Reference value :  1.47532e-05
 Reference value :  1.47538e-05
 Reference value :  1.47550e-05
 Reference value :  1.47565e-05
 Reference value :  1.47653e-05
 Reference value :  1.48295e-05
 Reference value :  1.50000e-05
 Reference value :  1.50001e-05
 Reference value :  1.50003e-05
 Reference value :  1.50009e-05
 Reference value :  1.50018e-05
 Reference value :  1.50028e-05
 Reference value :  1.50039e-05
 Reference value :  1.50055e-05
 Reference value :  1.50072e-05
 Reference value :  1.50089e-05
 Reference value :  1.50109e-05
 Reference value :  1.50277e-05
 Reference value :  1.52501e-05
 Reference value :  1.52502e-05
 Reference value :  1.52503e-05
 Reference value :  1.52507e-05
 Reference value :  1.52515e-05
 Reference value :  1.52532e-05
 Reference value :  1.52538e-05
 Reference value :  1.52549e-05
 Reference value :  1.52563e-05
 Reference value :  1.52609e-05
 Reference value :  1.53044e-05
 Reference value :  1.55011e-05
 Reference value :  1.55043e-05
 Reference value :  1.55062e-05
 Reference value :  1.55081e-05
 Reference value :  1.55105e-05
 Reference value :  1.55134e-05
 Reference value :  1.55156e-05
 Reference value :  1.55179e-05
 Reference value :  1.55220e-05
 Reference value :  1.55318e-05
 Reference value :  1.55466e-05
 Reference value :  1.55581e-05
 Reference value :  1.55885e-05
 Reference value :  1.56321e-05
 Reference value :  1.57501e-05
 Reference value :  1.57502e-05
 Reference value :  1.57503e-05
 Reference value :  1.57510e-05
 Reference value :  1.57520e-05
 Reference value :  1.57532e-05
 Reference value :  1.57536e-05
 Reference value :  1.57547e-05
 Reference value :  1.57562e-05
 Reference value :  1.57608e-05
 Reference value :  1.58060e-05
 Reference value :  1.60000e-05
 Reference value :  1.60001e-05
 Reference value :  1.60003e-05
 Reference value :  1.60017e-05
 Reference value :  1.60032e-05
 Reference value :  1.60052e-05
 Reference value :  1.60067e-05
 Reference value :  1.60084e-05
 Reference value :  1.60114e-05
 Reference value :  1.60185e-05
 Reference value :  1.60556e-05
 Reference value :  1.62501e-05
 Reference value :  1.62502e-05
 Reference value :  1.62503e-05
 Reference value :  1.62510e-05
 Reference value :  1.62515e-05
 Reference value :  1.62533e-05
 Reference value :  1.62544e-05
 Reference value :  1.62563e-05
 Reference value :  1.62589e-05
 Reference value :  1.62670e-05
 Reference value :  1.63182e-05
 Reference value :  1.65000e-05
 Reference value :  1.65001e-05
 Reference value :  1.65002e-05
 Reference value :  1.65005e-05
 Reference value :  1.65018e-05
 Reference value :  1.65028e-05
 Reference value :  1.65039e-05
 Reference value :  1.65058e-05
 Reference value :  1.65081e-05
 Reference value :  1.65104e-05
 Reference value :  1.65172e-05
 Reference value :  1.65342e-05
 Reference value :  1.65399e-05
 Reference value :  1.65439e-05
 Reference value :  1.65530e-05
 Reference value :  1.65771e-05
 Reference value :  1.66985e-05
 Reference value :  1.67501e-05
 Reference value :  1.67502e-05
 Reference value :  1.67503e-05
 Reference value :  1.67510e-05
 Reference value :  1.67520e-05
 Reference value :  1.67532e-05
 Reference value :  1.67550e-05
 Reference value :  1.67585e-05
 Reference value :  1.67775e-05
 Reference value :  1.69108e-05
 Reference value :  1.70000e-05
 Reference value :  1.70000e-05
 Reference value :  1.70000e-05
 Reference value :  1.70001e-05
 Reference value :  1.70003e-05
 Reference value :  1.70012e-05
 Reference value :  1.70022e-05
 Reference value :  1.70032e-05
 Reference value :  1.70050e-05
 Reference value :  1.70069e-05
 Reference value :  1.70190e-05
 Reference value :  1.70244e-05
 Reference value :  1.70288e-05
 Reference value :  1.70319e-05
 Reference value :  1.70370e-05
 Reference value :  1.70438e-05
 Reference value :  1.70541e-05
 Reference value :  1.70772e-05
 Reference value :  1.71411e-05
 Reference value :  1.72501e-05
 Reference value :  1.72502e-05
 Reference value :  1.72502e-05
 Reference value :  1.72504e-05
 Reference value :  1.72515e-05
 Reference value :  1.72525e-05
 Reference value :  1.72538e-05
 Reference value :  1.72549e-05
 Reference value :  1.72564e-05
 Reference value :  1.72616e-05
 Reference value :  1.72856e-05
 Reference value :  1.74773e-05
 Reference value :  1.75000e-05
 Reference value :  1.75001e-05
 Reference value :  1.75003e-05
 Reference value :  1.75013e-05
 Reference value :  1.75023e-05
 Reference value :  1.75033e-05
 Reference value :  1.75045e-05
 Reference value :  1.75064e-05
 Reference value :  1.75089e-05
 Reference value :  1.75133e-05
 Reference value :  1.75164e-05
 Reference value :  1.75314e-05
 Reference value :  1.76487e-05
 Reference value :  1.77501e-05
 Reference value :  1.77502e-05
 Reference value :  1.77503e-05
 Reference value :  1.77507e-05
 Reference value :  1.77515e-05
 Reference value :  1.77525e-05
 Reference value :  1.77538e-05
 Reference value :  1.77549e-05
 Reference value :  1.77563e-05
 Reference value :  1.77609e-05
 Reference value :  1.77813e-05
 Reference value :  1.80000e-05
 Reference value :  1.80010e-05
 Reference value :  1.80040e-05
 Reference value :  1.80059e-05
 Reference value :  1.80076e-05
 Reference value :  1.80114e-05
 Reference value :  1.80125e-05
 Reference value :  1.80150e-05
 Reference value :  1.80172e-05
 Reference value :  1.80196e-05
 Reference value :  1.80261e-05
 Reference value :  1.80385e-05
 Reference value :  1.80550e-05
 Reference value :  1.80685e-05
 Reference value :  1.80799e-05
 Reference value :  1.80987e-05
 Reference value :  1.81736e-05
 Reference value :  1.82501e-05
 Reference value :  1.82502e-05
 Reference value :  1.82503e-05
 Reference value :  1.82510e-05
 Reference value :  1.82520e-05
 Reference value :  1.82532e-05
 Reference value :  1.82543e-05
 Reference value :  1.82554e-05
 Reference value :  1.82589e-05
 Reference value :  1.82829e-05
 Reference value :  1.85000e-05
 Reference value :  1.85001e-05
 Reference value :  1.85001e-05
 Reference value :  1.85003e-05
 Reference value :  1.85013e-05
 Reference value :  1.85022e-05
 Reference value :  1.85032e-05
 Reference value :  1.85044e-05
 Reference value :  1.85052e-05
 Reference value :  1.85067e-05
 Reference value :  1.85084e-05
 Reference value :  1.85103e-05
 Reference value :  1.85127e-05
 Reference value :  1.85249e-05
 Reference value :  1.85929e-05
 Reference value :  1.87501e-05
 Reference value :  1.87502e-05
 Reference value :  1.87503e-05
 Reference value :  1.87510e-05
 Reference value :  1.87520e-05
 Reference value :  1.87533e-05
 Reference value :  1.87544e-05
 Reference value :  1.87555e-05
 Reference value :  1.87571e-05
 Reference value :  1.87602e-05
 Reference value :  1.87730e-05
 Reference value :  1.88662e-05
 Reference value :  1.90000e-05
 Reference value :  1.90001e-05
 Reference value :  1.90005e-05
 Reference value :  1.90018e-05
 Reference value :  1.90033e-05
 Reference value :  1.90046e-05
 Reference value :  1.90058e-05
 Reference value :  1.90073e-05
 Reference value :  1.90104e-05
 Reference value :  1.90126e-05
 Reference value :  1.90144e-05
 Reference value :  1.90164e-05
 Reference value :  1.90198e-05
 Reference value :  1.90368e-05
 Reference value :  1.91234e-05
 Reference value :  1.92045e-05
 Reference value :  1.92501e-05
 Reference value :  1.92502e-05
 Reference value :  1.92503e-05
 Reference value :  1.92510e-05
 Reference value :  1.92520e-05
 Reference value :  1.92538e-05
 Reference value :  1.92556e-05
 Reference value :  1.92718e-05
 Reference value :  1.95005e-05
 Reference value :  1.95019e-05
 Reference value :  1.95030e-05
 Reference value :  1.95043e-05
 Reference value :  1.95060e-05
 Reference value :  1.95066e-05
 Reference value :  1.95083e-05
 Reference value :  1.95102e-05
 Reference value :  1.95125e-05
 Reference value :  1.95253e-05
 Reference value :  1.95991e-05
 Reference value :  1.97501e-05
 Reference value :  1.97502e-05
 Reference value :  1.97502e-05
 Reference value :  1.97503e-05
 Reference value :  1.97504e-05
 Reference value :  1.97510e-05
 Reference value :  1.97515e-05
 Reference value :  1.97525e-05
 Reference value :  1.97537e-05
 Reference value :  1.97549e-05
 Reference value :  1.97562e-05
 Reference value :  1.97589e-05
 Reference value :  1.97638e-05
 Reference value :  1.97803e-05
 Reference value :  1.98514e-05
 Reference value :  2.00000e-05
 Reference value :  2.00001e-05
 Reference value :  2.00001e-05
 Reference value :  2.00002e-05
 Reference value :  2.00003e-05
 Reference value :  2.00009e-05
 Reference value :  2.00018e-05
 Reference value :  2.00028e-05
 Reference value :  2.00033e-05
 Reference value :  2.00039e-05
 Reference value :  2.00052e-05
 Reference value :  2.00058e-05
 Reference value :  2.00073e-05
 Reference value :  2.00093e-05
 Reference value :  2.00104e-05
 Reference value :  2.00115e-05
 Reference value :  2.00126e-05
 Reference value :  2.00135e-05
 Reference value :  2.00154e-05
 Reference value :  2.00174e-05
 Reference value :  2.00186e-05
 Reference value :  2.00217e-05
 Reference value :  2.00363e-05
 Reference value :  2.00455e-05
 Reference value :  2.00542e-05
 Reference value :  2.00609e-05
 Reference value :  2.00682e-05
 Reference value :  2.00825e-05
 Reference value :  2.01099e-05
 Reference value :  2.02163e-05
 Reference value :  2.02501e-05
 Reference value :  2.02502e-05
 Reference value :  2.02502e-05
 Reference value :  2.02503e-05
 Reference value :  2.02507e-05
 Reference value :  2.02515e-05
 Reference value :  2.02525e-05
 Reference value :  2.02538e-05
 Reference value :  2.02550e-05
 Reference value :  2.02577e-05
 Reference value :  2.02724e-05
 Reference value :  2.04831e-05
 Reference value :  2.05003e-05
 Reference value :  2.05012e-05
 Reference value :  2.05019e-05
 Reference value :  2.05028e-05
 Reference value :  2.05039e-05
 Reference value :  2.05055e-05
 Reference value :  2.05074e-05
 Reference value :  2.05094e-05
 Reference value :  2.05116e-05
 Reference value :  2.05248e-05
 Reference value :  2.06413e-05
 Reference value :  2.07501e-05
 Reference value :  2.07502e-05
 Reference value :  2.07503e-05
 Reference value :  2.07510e-05
 Reference value :  2.07520e-05
 Reference value :  2.07532e-05
 Reference value :  2.07538e-05
 Reference value :  2.07549e-05
 Reference value :  2.07563e-05
 Reference value :  2.07811e-05
 Reference value :  2.10000e-05
 Reference value :  2.10001e-05
 Reference value :  2.10002e-05
 Reference value :  2.10009e-05
 Reference value :  2.10018e-05
 Reference value :  2.10033e-05
 Reference value :  2.10052e-05
 Reference value :  2.10065e-05
 Reference value :  2.10098e-05
 Reference value :  2.10128e-05
 Reference value :  2.10161e-05
 Reference value :  2.10182e-05
 Reference value :  2.10231e-05
 Reference value :  2.10383e-05
 Reference value :  2.10450e-05
 Reference value :  2.10565e-05
 Reference value :  2.10679e-05
 Reference value :  2.10803e-05
 Reference value :  2.11567e-05
 Reference value :  2.12501e-05
 Reference value :  2.12502e-05
 Reference value :  2.12502e-05
 Reference value :  2.12504e-05
 Reference value :  2.12510e-05
 Reference value :  2.12515e-05
 Reference value :  2.12525e-05
 Reference value :  2.12538e-05
 Reference value :  2.12549e-05
 Reference value :  2.12578e-05
 Reference value :  2.12652e-05
 Reference value :  2.13106e-05
 Reference value :  2.15000e-05
 Reference value :  2.15001e-05
 Reference value :  2.15001e-05
 Reference value :  2.15003e-05
 Reference value :  2.15009e-05
 Reference value :  2.15017e-05
 Reference value :  2.15032e-05
 Reference value :  2.15044e-05
 Reference value :  2.15060e-05
 Reference value :  2.15067e-05
 Reference value :  2.15084e-05
 Reference value :  2.15103e-05
 Reference value :  2.15127e-05
 Reference value :  2.15247e-05
 Reference value :  2.16638e-05
 Reference value :  2.17502e-05
 Reference value :  2.17503e-05
 Reference value :  2.17507e-05
 Reference value :  2.17520e-05
 Reference value :  2.17538e-05
 Reference value :  2.17549e-05
 Reference value :  2.17563e-05
 Reference value :  2.17589e-05
 Reference value :  2.17671e-05
 Reference value :  2.18197e-05
 Reference value :  2.20007e-05
 Reference value :  2.20027e-05
 Reference value :  2.20040e-05
 Reference value :  2.20051e-05
 Reference value :  2.20061e-05
 Reference value :  2.20096e-05
 Reference value :  2.20116e-05
 Reference value :  2.20135e-05
 Reference value :  2.20164e-05
 Reference value :  2.20199e-05
 Reference value :  2.20264e-05
 Reference value :  2.20309e-05
 Reference value :  2.20416e-05
 Reference value :  2.20699e-05
 Reference value :  2.22501e-05
 Reference value :  2.22502e-05
 Reference value :  2.22504e-05
 Reference value :  2.22515e-05
 Reference value :  2.22533e-05
 Reference value :  2.22544e-05
 Reference value :  2.22556e-05
 Reference value :  2.22619e-05
 Reference value :  2.23710e-05
 Reference value :  2.25000e-05
 Reference value :  2.25001e-05
 Reference value :  2.25003e-05
 Reference value :  2.25013e-05
 Reference value :  2.25023e-05
 Reference value :  2.25033e-05
 Reference value :  2.25055e-05
 Reference value :  2.25080e-05
 Reference value :  2.25109e-05
 Reference value :  2.26523e-05
 Reference value :  2.27501e-05
 Reference value :  2.27503e-05
 Reference value :  2.27510e-05
 Reference value :  2.27520e-05
 Reference value :  2.27538e-05
 Reference value :  2.27549e-05
 Reference value :  2.27563e-05
 Reference value :  2.27609e-05
 Reference value :  2.28043e-05
 Reference value :  2.30011e-05
 Reference value :  2.30043e-05
 Reference value :  2.30063e-05
 Reference value :  2.30091e-05
 Reference value :  2.30105e-05
 Reference value :  2.30135e-05
 Reference value :  2.30146e-05
 Reference value :  2.30168e-05
 Reference value :  2.30190e-05
 Reference value :  2.30221e-05
 Reference value :  2.30331e-05
 Reference value :  2.30578e-05
 Reference value :  2.30824e-05
 Reference value :  2.31518e-05
 Reference value :  2.31730e-05
 Reference value :  2.32501e-05
 Reference value :  2.32502e-05
 Reference value :  2.32502e-05
 Reference value :  2.32503e-05
 Reference value :  2.32507e-05
 Reference value :  2.32510e-05
 Reference value :  2.32515e-05
 Reference value :  2.32525e-05
 Reference value :  2.32537e-05
 Reference value :  2.32548e-05
 Reference value :  2.32563e-05
 Reference value :  2.32589e-05
 Reference value :  2.32708e-05
 Reference value :  2.33607e-05
 Reference value :  2.35000e-05
 Reference value :  2.35001e-05
 Reference value :  2.35002e-05
 Reference value :  2.35005e-05
 Reference value :  2.35013e-05
 Reference value :  2.35023e-05
 Reference value :  2.35033e-05
 Reference value :  2.35055e-05
 Reference value :  2.35072e-05
 Reference value :  2.35089e-05
 Reference value :  2.35109e-05
 Reference value :  2.35187e-05
 Reference value :  2.35811e-05
 Reference value :  2.37501e-05
 Reference value :  2.37502e-05
 Reference value :  2.37503e-05
 Reference value :  2.37510e-05
 Reference value :  2.37520e-05
 Reference value :  2.37532e-05
 Reference value :  2.37538e-05
 Reference value :  2.37549e-05
 Reference value :  2.37563e-05
 Reference value :  2.37641e-05
 Reference value :  2.38043e-05
 Reference value :  2.40000e-05
 Reference value :  2.40001e-05
 Reference value :  2.40001e-05
 Reference value :  2.40003e-05
 Reference value :  2.40009e-05
 Reference value :  2.40018e-05
 Reference value :  2.40028e-05
 Reference value :  2.40039e-05
 Reference value :  2.40052e-05
 Reference value :  2.40058e-05
 Reference value :  2.40075e-05
 Reference value :  2.40098e-05
 Reference value :  2.40128e-05
 Reference value :  2.40139e-05
 Reference value :  2.40161e-05
 Reference value :  2.40172e-05
 Reference value :  2.40195e-05
 Reference value :  2.40231e-05
 Reference value :  2.40309e-05
 Reference value :  2.40478e-05
 Reference value :  2.40576e-05
 Reference value :  2.40828e-05
 Reference value :  2.41079e-05
 Reference value :  2.41602e-05
 Reference value :  2.42150e-05
 Reference value :  2.42501e-05
 Reference value :  2.42502e-05
 Reference value :  2.42502e-05
 Reference value :  2.42503e-05
 Reference value :  2.42507e-05
 Reference value :  2.42515e-05
 Reference value :  2.42525e-05
 Reference value :  2.42532e-05
 Reference value :  2.42538e-05
 Reference value :  2.42549e-05
 Reference value :  2.42564e-05
 Reference value :  2.42592e-05
 Reference value :  2.42716e-05
 Reference value :  2.43104e-05
 Reference value :  2.45000e-05
 Reference value :  2.45000e-05
 Reference value :  2.45001e-05
 Reference value :  2.45001e-05
 Reference value :  2.45003e-05
 Reference value :  2.45009e-05
 Reference value :  2.45017e-05
 Reference value :  2.45027e-05
 Reference value :  2.45032e-05
 Reference value :  2.45044e-05
 Reference value :  2.45060e-05
 Reference value :  2.45067e-05
 Reference value :  2.45084e-05
 Reference value :  2.45103e-05
 Reference value :  2.45127e-05
 Reference value :  2.45247e-05
 Reference value :  2.45906e-05
 Reference value :  2.47501e-05
 Reference value :  2.47502e-05
 Reference value :  2.47502e-05
 Reference value :  2.47503e-05
 Reference value :  2.47507e-05
 Reference value :  2.47515e-05
 Reference value :  2.47525e-05
 Reference value :  2.47538e-05
 Reference value :  2.47549e-05
 Reference value :  2.47563e-05
 Reference value :  2.47579e-05
 Reference value :  2.47616e-05
 Reference value :  2.47730e-05
 Reference value :  2.48659e-05
 Reference value :  2.50000e-05
 Reference value :  2.50000e-05
 Reference value :  2.50001e-05
 Reference value :  2.50002e-05
 Reference value :  2.50003e-05
 Reference value :  2.50009e-05
 Reference value :  2.50018e-05
 Reference value :  2.50028e-05
 Reference value :  2.50033e-05
 Reference value :  2.50046e-05
 Reference value :  2.50058e-05
 Reference value :  2.50073e-05
 Reference value :  2.50089e-05
 Reference value :  2.50096e-05
 Reference value :  2.50113e-05
 Reference value :  2.50159e-05
 Reference value :  2.50244e-05
 Reference value :  2.50340e-05
 Reference value :  2.50554e-05
 Reference value :  2.51191e-05
 Reference value :  2.52501e-05
 Reference value :  2.52502e-05
 Reference value :  2.52502e-05
 Reference value :  2.52503e-05
 Reference value :  2.52507e-05
 Reference value :  2.52515e-05
 Reference value :  2.52525e-05
 Reference value :  2.52540e-05
 Reference value :  2.52570e-05
 Reference value :  2.52632e-05
 Reference value :  2.53346e-05
 Reference value :  2.55000e-05
 Reference value :  2.55000e-05
 Reference value :  2.55000e-05
 Reference value :  2.55000e-05
 Reference value :  2.55000e-05
 Reference value :  2.55001e-05
 Reference value :  2.55002e-05
 Reference value :  2.55007e-05
 Reference value :  2.55017e-05
 Reference value :  2.55027e-05
 Reference value :  2.55032e-05
 Reference value :  2.55045e-05
 Reference value :  2.55055e-05
 Reference value :  2.55069e-05
 Reference value :  2.55190e-05
 Reference value :  2.55244e-05
 Reference value :  2.55288e-05
 Reference value :  2.55319e-05
 Reference value :  2.55370e-05
 Reference value :  2.55415e-05
 Reference value :  2.55499e-05
 Reference value :  2.55777e-05
 Reference value :  2.56460e-05
 Reference value :  2.57501e-05
 Reference value :  2.57502e-05
 Reference value :  2.57503e-05
 Reference value :  2.57507e-05
 Reference value :  2.57515e-05
 Reference value :  2.57525e-05
 Reference value :  2.57538e-05
 Reference value :  2.57549e-05
 Reference value :  2.57576e-05
 Reference value :  2.57650e-05
 Reference value :  2.58130e-05
 Reference value :  2.60000e-05
 Reference value :  2.60001e-05
 Reference value :  2.60002e-05
 Reference value :  2.60005e-05
 Reference value :  2.60013e-05
 Reference value :  2.60023e-05
 Reference value :  2.60033e-05
 Reference value :  2.60045e-05
 Reference value :  2.60076e-05
 Reference value :  2.60115e-05
 Reference value :  2.60148e-05
 Reference value :  2.60258e-05
 Reference value :  2.61487e-05
 Reference value :  2.62502e-05
 Reference value :  2.62503e-05
 Reference value :  2.62515e-05
 Reference value :  2.62533e-05
 Reference value :  2.62544e-05
 Reference value :  2.62555e-05
 Reference value :  2.62571e-05
 Reference value :  2.62641e-05
 Reference value :  2.63501e-05
 Reference value :  2.65010e-05
 Reference value :  2.65040e-05
 Reference value :  2.65059e-05
 Reference value :  2.65076e-05
 Reference value :  2.65114e-05
 Reference value :  2.65126e-05
 Reference value :  2.65150e-05
 Reference value :  2.65172e-05
 Reference value :  2.65197e-05
 Reference value :  2.65309e-05
 Reference value :  2.65475e-05
 Reference value :  2.65640e-05
 Reference value :  2.65752e-05
 Reference value :  2.65811e-05
 Reference value :  2.66000e-05
 Reference value :  2.66486e-05
 Reference value :  2.67501e-05
 Reference value :  2.67501e-05
 Reference value :  2.67502e-05
 Reference value :  2.67503e-05
 Reference value :  2.67504e-05
 Reference value :  2.67510e-05
 Reference value :  2.67515e-05
 Reference value :  2.67525e-05
 Reference value :  2.67532e-05
 Reference value :  2.67537e-05
 Reference value :  2.67548e-05
 Reference value :  2.67563e-05
 Reference value :  2.67612e-05
 Reference value :  2.68078e-05
 Reference value :  2.70000e-05
 Reference value :  2.70001e-05
 Reference value :  2.70002e-05
 Reference value :  2.70005e-05
 Reference value :  2.70013e-05
 Reference value :  2.70022e-05
 Reference value :  2.70032e-05
 Reference value :  2.70044e-05
 Reference value :  2.70060e-05
 Reference value :  2.70074e-05
 Reference value :  2.70094e-05
 Reference value :  2.70114e-05
 Reference value :  2.70186e-05
 Reference value :  2.70929e-05
 Reference value :  2.72501e-05
 Reference value :  2.72502e-05
 Reference value :  2.72503e-05
 Reference value :  2.72507e-05
 Reference value :  2.72515e-05
 Reference value :  2.72533e-05
 Reference value :  2.72544e-05
 Reference value :  2.72555e-05
 Reference value :  2.72571e-05
 Reference value :  2.72616e-05
 Reference value :  2.72814e-05
 Reference value :  2.74585e-05
 Reference value :  2.75001e-05
 Reference value :  2.75002e-05
 Reference value :  2.75005e-05
 Reference value :  2.75018e-05
 Reference value :  2.75028e-05
 Reference value :  2.75039e-05
 Reference value :  2.75052e-05
 Reference value :  2.75064e-05
 Reference value :  2.75093e-05
 Reference value :  2.75115e-05
 Reference value :  2.75135e-05
 Reference value :  2.75154e-05
 Reference value :  2.75186e-05
 Reference value :  2.75282e-05
 Reference value :  2.75813e-05
 Reference value :  2.77062e-05
 Reference value :  2.77501e-05
 Reference value :  2.77502e-05
 Reference value :  2.77503e-05
 Reference value :  2.77510e-05
 Reference value :  2.77520e-05
 Reference value :  2.77533e-05
 Reference value :  2.77538e-05
 Reference value :  2.77549e-05
 Reference value :  2.77577e-05
 Reference value :  2.77718e-05
 Reference value :  2.78654e-05
 Reference value :  2.80006e-05
 Reference value :  2.80024e-05
 Reference value :  2.80035e-05
 Reference value :  2.80048e-05
 Reference value :  2.80066e-05
 Reference value :  2.80085e-05
 Reference value :  2.80105e-05
 Reference value :  2.80117e-05
 Reference value :  2.80193e-05
 Reference value :  2.81119e-05
 Reference value :  2.82501e-05
 Reference value :  2.82502e-05
 Reference value :  2.82502e-05
 Reference value :  2.82503e-05
 Reference value :  2.82507e-05
 Reference value :  2.82515e-05
 Reference value :  2.82525e-05
 Reference value :  2.82537e-05
 Reference value :  2.82549e-05
 Reference value :  2.82562e-05
 Reference value :  2.82579e-05
 Reference value :  2.82616e-05
 Reference value :  2.82725e-05
 Reference value :  2.83154e-05
 Reference value :  2.85000e-05
 Reference value :  2.85000e-05
 Reference value :  2.85001e-05
 Reference value :  2.85002e-05
 Reference value :  2.85009e-05
 Reference value :  2.85023e-05
 Reference value :  2.85033e-05
 Reference value :  2.85046e-05
 Reference value :  2.85058e-05
 Reference value :  2.85073e-05
 Reference value :  2.85104e-05
 Reference value :  2.85126e-05
 Reference value :  2.85154e-05
 Reference value :  2.85174e-05
 Reference value :  2.85217e-05
 Reference value :  2.85449e-05
 Reference value :  2.85536e-05
 Reference value :  2.85598e-05
 Reference value :  2.85669e-05
 Reference value :  2.85860e-05
 Reference value :  2.86434e-05
 Reference value :  2.87501e-05
 Reference value :  2.87502e-05
 Reference value :  2.87502e-05
 Reference value :  2.87503e-05
 Reference value :  2.87507e-05
 Reference value :  2.87515e-05
 Reference value :  2.87525e-05
 Reference value :  2.87538e-05
 Reference value :  2.87550e-05
 Reference value :  2.87565e-05
 Reference value :  2.87593e-05
 Reference value :  2.87724e-05
 Reference value :  2.88707e-05
 Reference value :  2.90003e-05
 Reference value :  2.90012e-05
 Reference value :  2.90019e-05
 Reference value :  2.90028e-05
 Reference value :  2.90039e-05
 Reference value :  2.90055e-05
 Reference value :  2.90074e-05
 Reference value :  2.90094e-05
 Reference value :  2.90116e-05
 Reference value :  2.90248e-05
 Reference value :  2.90816e-05
 Reference value :  2.92501e-05
 Reference value :  2.92502e-05
 Reference value :  2.92503e-05
 Reference value :  2.92507e-05
 Reference value :  2.92515e-05
 Reference value :  2.92532e-05
 Reference value :  2.92544e-05
 Reference value :  2.92555e-05
 Reference value :  2.92571e-05
 Reference value :  2.92641e-05
 Reference value :  2.93494e-05
 Reference value :  2.95000e-05
 Reference value :  2.95001e-05
 Reference value :  2.95002e-05
 Reference value :  2.95009e-05
 Reference value :  2.95023e-05
 Reference value :  2.95033e-05
 Reference value :  2.95052e-05
 Reference value :  2.95065e-05
 Reference value :  2.95098e-05
 Reference value :  2.95128e-05
 Reference value :  2.95150e-05
 Reference value :  2.95172e-05
 Reference value :  2.95214e-05
 Reference value :  2.95376e-05
 Reference value :  2.95511e-05
 Reference value :  2.95613e-05
 Reference value :  2.95778e-05
 Reference value :  2.96284e-05
 Reference value :  2.97501e-05
 Reference value :  2.97502e-05
 Reference value :  2.97503e-05
 Reference value :  2.97510e-05
 Reference value :  2.97520e-05
 Reference value :  2.97533e-05
 Reference value :  2.97543e-05
 Reference value :  2.97556e-05
 Reference value :  2.97592e-05
 Reference value :  2.97847e-05
 Reference value :  2.99664e-05
 Reference value :  3.00000e-05
 Reference value :  3.00001e-05
 Reference value :  3.00001e-05
 Reference value :  3.00002e-05
 Reference value :  3.00005e-05
 Reference value :  3.00017e-05
 Reference value :  3.00032e-05
 Reference value :  3.00044e-05
 Reference value :  3.00060e-05
 Reference value :  3.00067e-05
 Reference value :  3.00084e-05
 Reference value :  3.00115e-05
 Reference value :  3.00247e-05
 Reference value :  3.01638e-05
 Reference value :  3.02502e-05
 Reference value :  3.02502e-05
 Reference value :  3.02504e-05
 Reference value :  3.02515e-05
 Reference value :  3.02533e-05
 Reference value :  3.02538e-05
 Reference value :  3.02549e-05
 Reference value :  3.02563e-05
 Reference value :  3.02589e-05
 Reference value :  3.02641e-05
 Reference value :  3.02958e-05
 Reference value :  3.05000e-05
 Reference value :  3.05007e-05
 Reference value :  3.05027e-05
 Reference value :  3.05040e-05
 Reference value :  3.05051e-05
 Reference value :  3.05056e-05
 Reference value :  3.05075e-05
 Reference value :  3.05096e-05
 Reference value :  3.05116e-05
 Reference value :  3.05135e-05
 Reference value :  3.05154e-05
 Reference value :  3.05174e-05
 Reference value :  3.05219e-05
 Reference value :  3.05259e-05
 Reference value :  3.05288e-05
 Reference value :  3.05320e-05
 Reference value :  3.05409e-05
 Reference value :  3.05608e-05
 Reference value :  3.06825e-05
 Reference value :  3.07501e-05
 Reference value :  3.07502e-05
 Reference value :  3.07503e-05
 Reference value :  3.07510e-05
 Reference value :  3.07515e-05
 Reference value :  3.07533e-05
 Reference value :  3.07544e-05
 Reference value :  3.07550e-05
 Reference value :  3.07565e-05
 Reference value :  3.07619e-05
 Reference value :  3.07724e-05
 Reference value :  3.08710e-05
 Reference value :  3.10000e-05
 Reference value :  3.10001e-05
 Reference value :  3.10002e-05
 Reference value :  3.10009e-05
 Reference value :  3.10018e-05
 Reference value :  3.10028e-05
 Reference value :  3.10039e-05
 Reference value :  3.10064e-05
 Reference value :  3.10072e-05
 Reference value :  3.10089e-05
 Reference value :  3.10109e-05
 Reference value :  3.10187e-05
 Reference value :  3.11523e-05
 Reference value :  3.12501e-05
 Reference value :  3.12502e-05
 Reference value :  3.12503e-05
 Reference value :  3.12510e-05
 Reference value :  3.12515e-05
 Reference value :  3.12525e-05
 Reference value :  3.12533e-05
 Reference value :  3.12538e-05
 Reference value :  3.12549e-05
 Reference value :  3.12563e-05
 Reference value :  3.12641e-05
 Reference value :  3.13043e-05
 Reference value :  3.15000e-05
 Reference value :  3.15001e-05
 Reference value :  3.15002e-05
 Reference value :  3.15005e-05
 Reference value :  3.15013e-05
 Reference value :  3.15023e-05
 Reference value :  3.15033e-05
 Reference value :  3.15045e-05
 Reference value :  3.15058e-05
 Reference value :  3.15084e-05
 Reference value :  3.15098e-05
 Reference value :  3.15128e-05
 Reference value :  3.15150e-05
 Reference value :  3.15172e-05
 Reference value :  3.15214e-05
 Reference value :  3.15319e-05
 Reference value :  3.15688e-05
 Reference value :  3.16185e-05
 Reference value :  3.17121e-05
 Reference value :  3.17501e-05
 Reference value :  3.17502e-05
 Reference value :  3.17503e-05
 Reference value :  3.17510e-05
 Reference value :  3.17520e-05
 Reference value :  3.17533e-05
 Reference value :  3.17544e-05
 Reference value :  3.17556e-05
 Reference value :  3.17593e-05
 Reference value :  3.17724e-05
 Reference value :  3.19836e-05
 Reference value :  3.20001e-05
 Reference value :  3.20001e-05
 Reference value :  3.20003e-05
 Reference value :  3.20013e-05
 Reference value :  3.20033e-05
 Reference value :  3.20064e-05
 Reference value :  3.20081e-05
 Reference value :  3.20098e-05
 Reference value :  3.20120e-05
 Reference value :  3.20277e-05
 Reference value :  3.21524e-05
 Reference value :  3.22501e-05
 Reference value :  3.22502e-05
 Reference value :  3.22510e-05
 Reference value :  3.22525e-05
 Reference value :  3.22538e-05
 Reference value :  3.22555e-05
 Reference value :  3.22588e-05
 Reference value :  3.23043e-05
 Reference value :  3.25000e-05
 Reference value :  3.25001e-05
 Reference value :  3.25003e-05
 Reference value :  3.25018e-05
 Reference value :  3.25033e-05
 Reference value :  3.25052e-05
 Reference value :  3.25065e-05
 Reference value :  3.25098e-05
 Reference value :  3.25139e-05
 Reference value :  3.25172e-05
 Reference value :  3.25231e-05
 Reference value :  3.25671e-05
 Reference value :  3.26417e-05
 Reference value :  3.26855e-05
 Reference value :  3.27501e-05
 Reference value :  3.27503e-05
 Reference value :  3.27510e-05
 Reference value :  3.27525e-05
 Reference value :  3.27538e-05
 Reference value :  3.27549e-05
 Reference value :  3.27578e-05
 Reference value :  3.27716e-05
 Reference value :  3.30000e-05
 Reference value :  3.30001e-05
 Reference value :  3.30002e-05
 Reference value :  3.30009e-05
 Reference value :  3.30022e-05
 Reference value :  3.30032e-05
 Reference value :  3.30052e-05
 Reference value :  3.30067e-05
 Reference value :  3.30084e-05
 Reference value :  3.30115e-05
 Reference value :  3.30247e-05
 Reference value :  3.32501e-05
 Reference value :  3.32502e-05
 Reference value :  3.32503e-05
 Reference value :  3.32510e-05
 Reference value :  3.32515e-05
 Reference value :  3.32533e-05
 Reference value :  3.32538e-05
 Reference value :  3.32549e-05
 Reference value :  3.32563e-05
 Reference value :  3.32602e-05
 Reference value :  3.32814e-05
 Reference value :  3.35007e-05
 Reference value :  3.35028e-05
 Reference value :  3.35042e-05
 Reference value :  3.35059e-05
 Reference value :  3.35091e-05
 Reference value :  3.35126e-05
 Reference value :  3.35173e-05
 Reference value :  3.35220e-05
 Reference value :  3.37501e-05
 Reference value :  3.37502e-05
 Reference value :  3.37515e-05
 Reference value :  3.37540e-05
 Reference value :  3.37585e-05
 Reference value :  3.38345e-05
 Reference value :  3.40000e-05
 Reference value :  3.40000e-05
 Reference value :  3.40000e-05
 Reference value :  3.40000e-05
 Reference value :  3.40001e-05
 Reference value :  3.40001e-05
 Reference value :  3.40002e-05
 Reference value :  3.40004e-05
 Reference value :  3.40012e-05
 Reference value :  3.40022e-05
 Reference value :  3.40032e-05
 Reference value :  3.40045e-05
 Reference value :  3.40050e-05
 Reference value :  3.40062e-05
 Reference value :  3.40100e-05
 Reference value :  3.40190e-05
 Reference value :  3.40244e-05
 Reference value :  3.40288e-05
 Reference value :  3.40319e-05
 Reference value :  3.40347e-05
 Reference value :  3.40392e-05
 Reference value :  3.40435e-05
 Reference value :  3.40493e-05
 Reference value :  3.40588e-05
 Reference value :  3.40769e-05
 Reference value :  3.41476e-05
 Reference value :  3.42501e-05
 Reference value :  3.42501e-05
 Reference value :  3.42502e-05
 Reference value :  3.42503e-05
 Reference value :  3.42507e-05
 Reference value :  3.42515e-05
 Reference value :  3.42525e-05
 Reference value :  3.42538e-05
 Reference value :  3.42549e-05
 Reference value :  3.42576e-05
 Reference value :  3.42650e-05
 Reference value :  3.43675e-05
 Reference value :  3.45000e-05
 Reference value :  3.45001e-05
 Reference value :  3.45002e-05
 Reference value :  3.45009e-05
 Reference value :  3.45023e-05
 Reference value :  3.45033e-05
 Reference value :  3.45045e-05
 Reference value :  3.45076e-05
 Reference value :  3.45102e-05
 Reference value :  3.45133e-05
 Reference value :  3.45164e-05
 Reference value :  3.45258e-05
 Reference value :  3.45888e-05
 Reference value :  3.47501e-05
 Reference value :  3.47502e-05
 Reference value :  3.47507e-05
 Reference value :  3.47515e-05
 Reference value :  3.47533e-05
 Reference value :  3.47544e-05
 Reference value :  3.47555e-05
 Reference value :  3.47571e-05
 Reference value :  3.47698e-05
 Reference value :  3.49418e-05
 Reference value :  3.50001e-05
 Reference value :  3.50002e-05
 Reference value :  3.50005e-05
 Reference value :  3.50013e-05
 Reference value :  3.50023e-05
 Reference value :  3.50033e-05
 Reference value :  3.50045e-05
 Reference value :  3.50058e-05
 Reference value :  3.50084e-05
 Reference value :  3.50098e-05
 Reference value :  3.50128e-05
 Reference value :  3.50139e-05
 Reference value :  3.50161e-05
 Reference value :  3.50172e-05
 Reference value :  3.50214e-05
 Reference value :  3.50390e-05
 Reference value :  3.50558e-05
 Reference value :  3.50694e-05
 Reference value :  3.50807e-05
 Reference value :  3.50990e-05
 Reference value :  3.51789e-05
 Reference value :  3.52501e-05
 Reference value :  3.52502e-05
 Reference value :  3.52503e-05
 Reference value :  3.52510e-05
 Reference value :  3.52520e-05
 Reference value :  3.52533e-05
 Reference value :  3.52538e-05
 Reference value :  3.52549e-05
 Reference value :  3.52592e-05
 Reference value :  3.53105e-05
 Reference value :  3.55000e-05
 Reference value :  3.55001e-05
 Reference value :  3.55003e-05
 Reference value :  3.55013e-05
 Reference value :  3.55022e-05
 Reference value :  3.55032e-05
 Reference value :  3.55044e-05
 Reference value :  3.55060e-05
 Reference value :  3.55067e-05
 Reference value :  3.55084e-05
 Reference value :  3.55114e-05
 Reference value :  3.55247e-05
 Reference value :  3.56639e-05
 Reference value :  3.57502e-05
 Reference value :  3.57503e-05
 Reference value :  3.57507e-05
 Reference value :  3.57515e-05
 Reference value :  3.57533e-05
 Reference value :  3.57544e-05
 Reference value :  3.57555e-05
 Reference value :  3.57571e-05
 Reference value :  3.57602e-05
 Reference value :  3.57671e-05
 Reference value :  3.58197e-05
 Reference value :  3.60007e-05
 Reference value :  3.60027e-05
 Reference value :  3.60040e-05
 Reference value :  3.60045e-05
 Reference value :  3.60056e-05
 Reference value :  3.60067e-05
 Reference value :  3.60085e-05
 Reference value :  3.60106e-05
 Reference value :  3.60126e-05
 Reference value :  3.60144e-05
 Reference value :  3.60154e-05
 Reference value :  3.60174e-05
 Reference value :  3.60196e-05
 Reference value :  3.60270e-05
 Reference value :  3.60611e-05
 Reference value :  3.61436e-05
 Reference value :  3.62198e-05
 Reference value :  3.62501e-05
 Reference value :  3.62502e-05
 Reference value :  3.62502e-05
 Reference value :  3.62504e-05
 Reference value :  3.62510e-05
 Reference value :  3.62520e-05
 Reference value :  3.62538e-05
 Reference value :  3.62550e-05
 Reference value :  3.62577e-05
 Reference value :  3.62652e-05
 Reference value :  3.63027e-05
 Reference value :  3.65000e-05
 Reference value :  3.65001e-05
 Reference value :  3.65001e-05
 Reference value :  3.65002e-05
 Reference value :  3.65005e-05
 Reference value :  3.65013e-05
 Reference value :  3.65022e-05
 Reference value :  3.65032e-05
 Reference value :  3.65052e-05
 Reference value :  3.65067e-05
 Reference value :  3.65084e-05
 Reference value :  3.65114e-05
 Reference value :  3.65248e-05
 Reference value :  3.65914e-05
 Reference value :  3.67501e-05
 Reference value :  3.67502e-05
 Reference value :  3.67502e-05
 Reference value :  3.67504e-05
 Reference value :  3.67510e-05
 Reference value :  3.67520e-05
 Reference value :  3.67533e-05
 Reference value :  3.67538e-05
 Reference value :  3.67549e-05
 Reference value :  3.67563e-05
 Reference value :  3.67589e-05
 Reference value :  3.67616e-05
 Reference value :  3.67814e-05
 Reference value :  3.69592e-05
 Reference value :  3.70001e-05
 Reference value :  3.70001e-05
 Reference value :  3.70003e-05
 Reference value :  3.70009e-05
 Reference value :  3.70018e-05
 Reference value :  3.70028e-05
 Reference value :  3.70039e-05
 Reference value :  3.70052e-05
 Reference value :  3.70064e-05
 Reference value :  3.70082e-05
 Reference value :  3.70104e-05
 Reference value :  3.70126e-05
 Reference value :  3.70144e-05
 Reference value :  3.70164e-05
 Reference value :  3.70186e-05
 Reference value :  3.70280e-05
 Reference value :  3.70445e-05
 Reference value :  3.70579e-05
 Reference value :  3.70640e-05
 Reference value :  3.70769e-05
 Reference value :  3.71240e-05
 Reference value :  3.72501e-05
 Reference value :  3.72502e-05
 Reference value :  3.72503e-05
 Reference value :  3.72510e-05
 Reference value :  3.72520e-05
 Reference value :  3.72533e-05
 Reference value :  3.72544e-05
 Reference value :  3.72556e-05
 Reference value :  3.72593e-05
 Reference value :  3.72724e-05
 Reference value :  3.73707e-05
 Reference value :  3.75000e-05
 Reference value :  3.75001e-05
 Reference value :  3.75003e-05
 Reference value :  3.75013e-05
 Reference value :  3.75028e-05
 Reference value :  3.75039e-05
 Reference value :  3.75055e-05
 Reference value :  3.75072e-05
 Reference value :  3.75089e-05
 Reference value :  3.75109e-05
 Reference value :  3.75276e-05
 Reference value :  3.77501e-05
 Reference value :  3.77502e-05
 Reference value :  3.77503e-05
 Reference value :  3.77507e-05
 Reference value :  3.77515e-05
 Reference value :  3.77533e-05
 Reference value :  3.77544e-05
 Reference value :  3.77563e-05
 Reference value :  3.77641e-05
 Reference value :  3.78503e-05
 Reference value :  3.80001e-05
 Reference value :  3.80002e-05
 Reference value :  3.80009e-05
 Reference value :  3.80023e-05
 Reference value :  3.80033e-05
 Reference value :  3.80052e-05
 Reference value :  3.80065e-05
 Reference value :  3.80098e-05
 Reference value :  3.80128e-05
 Reference value :  3.80150e-05
 Reference value :  3.80172e-05
 Reference value :  3.80214e-05
 Reference value :  3.80371e-05
 Reference value :  3.80438e-05
 Reference value :  3.80561e-05
 Reference value :  3.80658e-05
 Reference value :  3.80838e-05
 Reference value :  3.81512e-05
 Reference value :  3.82501e-05
 Reference value :  3.82502e-05
 Reference value :  3.82503e-05
 Reference value :  3.82510e-05
 Reference value :  3.82520e-05
 Reference value :  3.82533e-05
 Reference value :  3.82543e-05
 Reference value :  3.82556e-05
 Reference value :  3.82592e-05
 Reference value :  3.82847e-05
 Reference value :  3.84666e-05
 Reference value :  3.85006e-05
 Reference value :  3.85023e-05
 Reference value :  3.85034e-05
 Reference value :  3.85047e-05
 Reference value :  3.85065e-05
 Reference value :  3.85085e-05
 Reference value :  3.85105e-05
 Reference value :  3.85131e-05
 Reference value :  3.85249e-05
 Reference value :  3.85975e-05
 Reference value :  3.87501e-05
 Reference value :  3.87502e-05
 Reference value :  3.87503e-05
 Reference value :  3.87510e-05
 Reference value :  3.87520e-05
 Reference value :  3.87532e-05
 Reference value :  3.87544e-05
 Reference value :  3.87555e-05
 Reference value :  3.87562e-05
 Reference value :  3.87589e-05
 Reference value :  3.87639e-05
 Reference value :  3.87946e-05
 Reference value :  3.90000e-05
 Reference value :  3.90001e-05
 Reference value :  3.90002e-05
 Reference value :  3.90009e-05
 Reference value :  3.90023e-05
 Reference value :  3.90033e-05
 Reference value :  3.90052e-05
 Reference value :  3.90064e-05
 Reference value :  3.90093e-05
 Reference value :  3.90115e-05
 Reference value :  3.90135e-05
 Reference value :  3.90164e-05
 Reference value :  3.90188e-05
 Reference value :  3.90245e-05
 Reference value :  3.90278e-05
 Reference value :  3.90312e-05
 Reference value :  3.90487e-05
 Reference value :  3.91034e-05
 Reference value :  3.92501e-05
 Reference value :  3.92502e-05
 Reference value :  3.92503e-05
 Reference value :  3.92507e-05
 Reference value :  3.92515e-05
 Reference value :  3.92525e-05
 Reference value :  3.92533e-05
 Reference value :  3.92538e-05
 Reference value :  3.92550e-05
 Reference value :  3.92593e-05
 Reference value :  3.93145e-05
 Reference value :  3.95000e-05
 Reference value :  3.95001e-05
 Reference value :  3.95002e-05
 Reference value :  3.95009e-05
 Reference value :  3.95023e-05
 Reference value :  3.95033e-05
 Reference value :  3.95046e-05
 Reference value :  3.95064e-05
 Reference value :  3.95072e-05
 Reference value :  3.95080e-05
 Reference value :  3.95098e-05
 Reference value :  3.95120e-05
 Reference value :  3.95277e-05
 Reference value :  3.97501e-05
 Reference value :  3.97502e-05
 Reference value :  3.97503e-05
 Reference value :  3.97507e-05
 Reference value :  3.97515e-05
 Reference value :  3.97525e-05
 Reference value :  3.97538e-05
 Reference value :  3.97549e-05
 Reference value :  3.97563e-05
 Reference value :  3.97609e-05
 Reference value :  3.98043e-05
 Reference value :  4.00000e-05
 Reference value :  4.00001e-05
 Reference value :  4.00002e-05
 Reference value :  4.00003e-05
 Reference value :  4.00009e-05
 Reference value :  4.00023e-05
 Reference value :  4.00033e-05
 Reference value :  4.00045e-05
 Reference value :  4.00058e-05
 Reference value :  4.00075e-05
 Reference value :  4.00098e-05
 Reference value :  4.00128e-05
 Reference value :  4.00150e-05
 Reference value :  4.00172e-05
 Reference value :  4.00214e-05
 Reference value :  4.00319e-05
 Reference value :  4.00583e-05
 Reference value :  4.01189e-05
 Reference value :  4.02501e-05
 Reference value :  4.02502e-05
 Reference value :  4.02502e-05
 Reference value :  4.02504e-05
 Reference value :  4.02515e-05
 Reference value :  4.02533e-05
 Reference value :  4.02544e-05
 Reference value :  4.02556e-05
 Reference value :  4.02593e-05
 Reference value :  4.02865e-05
 Reference value :  4.05000e-05
 Reference value :  4.05001e-05
 Reference value :  4.05001e-05
 Reference value :  4.05003e-05
 Reference value :  4.05009e-05
 Reference value :  4.05023e-05
 Reference value :  4.05033e-05
 Reference value :  4.05046e-05
 Reference value :  4.05064e-05
 Reference value :  4.05072e-05
 Reference value :  4.05089e-05
 Reference value :  4.05109e-05
 Reference value :  4.05455e-05
 Reference value :  4.07501e-05
 Reference value :  4.07502e-05
 Reference value :  4.07504e-05
 Reference value :  4.07515e-05
 Reference value :  4.07538e-05
 Reference value :  4.07555e-05
 Reference value :  4.07588e-05
 Reference value :  4.08503e-05
 Reference value :  4.10011e-05
 Reference value :  4.10043e-05
 Reference value :  4.10071e-05
 Reference value :  4.10105e-05
 Reference value :  4.10146e-05
 Reference value :  4.10179e-05
 Reference value :  4.10239e-05
 Reference value :  4.11082e-05
 Reference value :  4.12501e-05
 Reference value :  4.12503e-05
 Reference value :  4.12515e-05
 Reference value :  4.12537e-05
 Reference value :  4.12564e-05
 Reference value :  4.12838e-05
 Reference value :  4.15000e-05
 Reference value :  4.15002e-05
 Reference value :  4.15009e-05
 Reference value :  4.15023e-05
 Reference value :  4.15033e-05
 Reference value :  4.15055e-05
 Reference value :  4.15072e-05
 Reference value :  4.15089e-05
 Reference value :  4.15120e-05
 Reference value :  4.15455e-05
 Reference value :  4.17501e-05
 Reference value :  4.17502e-05
 Reference value :  4.17503e-05
 Reference value :  4.17507e-05
 Reference value :  4.17515e-05
 Reference value :  4.17525e-05
 Reference value :  4.17538e-05
 Reference value :  4.17549e-05
 Reference value :  4.17563e-05
 Reference value :  4.17609e-05
 Reference value :  4.17813e-05
 Reference value :  4.20000e-05
 Reference value :  4.20001e-05
 Reference value :  4.20002e-05
 Reference value :  4.20009e-05
 Reference value :  4.20023e-05
 Reference value :  4.20033e-05
 Reference value :  4.20052e-05
 Reference value :  4.20065e-05
 Reference value :  4.20084e-05
 Reference value :  4.20103e-05
 Reference value :  4.20178e-05
 Reference value :  4.21328e-05
 Reference value :  4.22501e-05
 Reference value :  4.22502e-05
 Reference value :  4.22504e-05
 Reference value :  4.22515e-05
 Reference value :  4.22532e-05
 Reference value :  4.22550e-05
 Reference value :  4.22585e-05
 Reference value :  4.22775e-05
 Reference value :  4.25000e-05
 Reference value :  4.25000e-05
 Reference value :  4.25000e-05
 Reference value :  4.25000e-05
 Reference value :  4.25001e-05
 Reference value :  4.25001e-05
 Reference value :  4.25003e-05
 Reference value :  4.25012e-05
 Reference value :  4.25027e-05
 Reference value :  4.25039e-05
 Reference value :  4.25050e-05
 Reference value :  4.25069e-05
 Reference value :  4.25244e-05
 Reference value :  4.25288e-05
 Reference value :  4.25348e-05
 Reference value :  4.25412e-05
 Reference value :  4.25486e-05
 Reference value :  4.25780e-05
 Reference value :  4.26486e-05
 Reference value :  4.27501e-05
 Reference value :  4.27502e-05
 Reference value :  4.27503e-05
 Reference value :  4.27510e-05
 Reference value :  4.27525e-05
 Reference value :  4.27538e-05
 Reference value :  4.27556e-05
 Reference value :  4.27616e-05
 Reference value :  4.28129e-05
 Reference value :  4.30000e-05
 Reference value :  4.30001e-05
 Reference value :  4.30002e-05
 Reference value :  4.30009e-05
 Reference value :  4.30023e-05
 Reference value :  4.30033e-05
 Reference value :  4.30045e-05
 Reference value :  4.30064e-05
 Reference value :  4.30076e-05
 Reference value :  4.30102e-05
 Reference value :  4.30133e-05
 Reference value :  4.30164e-05
 Reference value :  4.30314e-05
 Reference value :  4.31494e-05
 Reference value :  4.32501e-05
 Reference value :  4.32502e-05
 Reference value :  4.32507e-05
 Reference value :  4.32520e-05
 Reference value :  4.32533e-05
 Reference value :  4.32538e-05
 Reference value :  4.32549e-05
 Reference value :  4.32563e-05
 Reference value :  4.32609e-05
 Reference value :  4.33042e-05
 Reference value :  4.35010e-05
 Reference value :  4.35040e-05
 Reference value :  4.35059e-05
 Reference value :  4.35086e-05
 Reference value :  4.35114e-05
 Reference value :  4.35126e-05
 Reference value :  4.35150e-05
 Reference value :  4.35173e-05
 Reference value :  4.35214e-05
 Reference value :  4.35311e-05
 Reference value :  4.35474e-05
 Reference value :  4.35624e-05
 Reference value :  4.35729e-05
 Reference value :  4.35917e-05
 Reference value :  4.36362e-05
 Reference value :  4.37501e-05
 Reference value :  4.37502e-05
 Reference value :  4.37503e-05
 Reference value :  4.37507e-05
 Reference value :  4.37515e-05
 Reference value :  4.37525e-05
 Reference value :  4.37537e-05
 Reference value :  4.37548e-05
 Reference value :  4.37574e-05
 Reference value :  4.37643e-05
 Reference value :  4.38077e-05
 Reference value :  4.40000e-05
 Reference value :  4.40001e-05
 Reference value :  4.40001e-05
 Reference value :  4.40002e-05
 Reference value :  4.40009e-05
 Reference value :  4.40017e-05
 Reference value :  4.40027e-05
 Reference value :  4.40038e-05
 Reference value :  4.40052e-05
 Reference value :  4.40067e-05
 Reference value :  4.40084e-05
 Reference value :  4.40114e-05
 Reference value :  4.40249e-05
 Reference value :  4.41687e-05
 Reference value :  4.42501e-05
 Reference value :  4.42502e-05
 Reference value :  4.42507e-05
 Reference value :  4.42515e-05
 Reference value :  4.42525e-05
 Reference value :  4.42538e-05
 Reference value :  4.42549e-05
 Reference value :  4.42563e-05
 Reference value :  4.42589e-05
 Reference value :  4.42640e-05
 Reference value :  4.42957e-05
 Reference value :  4.44585e-05
 Reference value :  4.45000e-05
 Reference value :  4.45001e-05
 Reference value :  4.45002e-05
 Reference value :  4.45009e-05
 Reference value :  4.45018e-05
 Reference value :  4.45028e-05
 Reference value :  4.45039e-05
 Reference value :  4.45058e-05
 Reference value :  4.45082e-05
 Reference value :  4.45104e-05
 Reference value :  4.45126e-05
 Reference value :  4.45144e-05
 Reference value :  4.45164e-05
 Reference value :  4.45186e-05
 Reference value :  4.45238e-05
 Reference value :  4.45812e-05
 Reference value :  4.47057e-05
 Reference value :  4.47501e-05
 Reference value :  4.47502e-05
 Reference value :  4.47503e-05
 Reference value :  4.47507e-05
 Reference value :  4.47515e-05
 Reference value :  4.47533e-05
 Reference value :  4.47544e-05
 Reference value :  4.47549e-05
 Reference value :  4.47577e-05
 Reference value :  4.47651e-05
 Reference value :  4.47974e-05
 Reference value :  4.49427e-05
 Reference value :  4.50000e-05
 Reference value :  4.50001e-05
 Reference value :  4.50003e-05
 Reference value :  4.50009e-05
 Reference value :  4.50017e-05
 Reference value :  4.50032e-05
 Reference value :  4.50052e-05
 Reference value :  4.50067e-05
 Reference value :  4.50084e-05
 Reference value :  4.50103e-05
 Reference value :  4.50115e-05
 Reference value :  4.50185e-05
 Reference value :  4.50540e-05
 Reference value :  4.52501e-05
 Reference value :  4.52502e-05
 Reference value :  4.52502e-05
 Reference value :  4.52507e-05
 Reference value :  4.52515e-05
 Reference value :  4.52533e-05
 Reference value :  4.52544e-05
 Reference value :  4.52555e-05
 Reference value :  4.52571e-05
 Reference value :  4.52602e-05
 Reference value :  4.52731e-05
 Reference value :  4.53670e-05
 Reference value :  4.55000e-05
 Reference value :  4.55001e-05
 Reference value :  4.55003e-05
 Reference value :  4.55013e-05
 Reference value :  4.55028e-05
 Reference value :  4.55039e-05
 Reference value :  4.55058e-05
 Reference value :  4.55082e-05
 Reference value :  4.55104e-05
 Reference value :  4.55126e-05
 Reference value :  4.55144e-05
 Reference value :  4.55164e-05
 Reference value :  4.55186e-05
 Reference value :  4.55238e-05
 Reference value :  4.55442e-05
 Reference value :  4.55516e-05
 Reference value :  4.55568e-05
 Reference value :  4.55606e-05
 Reference value :  4.55632e-05
 Reference value :  4.55718e-05
 Reference value :  4.55929e-05
 Reference value :  4.56664e-05
 Reference value :  4.57501e-05
 Reference value :  4.57502e-05
 Reference value :  4.57503e-05
 Reference value :  4.57510e-05
 Reference value :  4.57525e-05
 Reference value :  4.57538e-05
 Reference value :  4.57550e-05
 Reference value :  4.57593e-05
 Reference value :  4.58145e-05
 Reference value :  4.60003e-05
 Reference value :  4.60012e-05
 Reference value :  4.60019e-05
 Reference value :  4.60028e-05
 Reference value :  4.60039e-05
 Reference value :  4.60065e-05
 Reference value :  4.60084e-05
 Reference value :  4.60104e-05
 Reference value :  4.60129e-05
 Reference value :  4.60248e-05
 Reference value :  4.60818e-05
 Reference value :  4.62501e-05
 Reference value :  4.62502e-05
 Reference value :  4.62503e-05
 Reference value :  4.62507e-05
 Reference value :  4.62515e-05
 Reference value :  4.62525e-05
 Reference value :  4.62538e-05
 Reference value :  4.62549e-05
 Reference value :  4.62563e-05
 Reference value :  4.62588e-05
 Reference value :  4.62698e-05
 Reference value :  4.63495e-05
 Reference value :  4.65000e-05
 Reference value :  4.65001e-05
 Reference value :  4.65001e-05
 Reference value :  4.65002e-05
 Reference value :  4.65003e-05
 Reference value :  4.65009e-05
 Reference value :  4.65018e-05
 Reference value :  4.65028e-05
 Reference value :  4.65033e-05
 Reference value :  4.65045e-05
 Reference value :  4.65058e-05
 Reference value :  4.65084e-05
 Reference value :  4.65098e-05
 Reference value :  4.65113e-05
 Reference value :  4.65128e-05
 Reference value :  4.65139e-05
 Reference value :  4.65161e-05
 Reference value :  4.65182e-05
 Reference value :  4.65214e-05
 Reference value :  4.65266e-05
 Reference value :  4.65438e-05
 Reference value :  4.65509e-05
 Reference value :  4.65608e-05
 Reference value :  4.65776e-05
 Reference value :  4.66214e-05
 Reference value :  4.67471e-05
 Reference value :  4.67501e-05
 Reference value :  4.67502e-05
 Reference value :  4.67503e-05
 Reference value :  4.67507e-05
 Reference value :  4.67515e-05
 Reference value :  4.67525e-05
 Reference value :  4.67538e-05
 Reference value :  4.67549e-05
 Reference value :  4.67578e-05
 Reference value :  4.67717e-05
 Reference value :  4.68625e-05
 Reference value :  4.70000e-05
 Reference value :  4.70001e-05
 Reference value :  4.70002e-05
 Reference value :  4.70003e-05
 Reference value :  4.70009e-05
 Reference value :  4.70017e-05
 Reference value :  4.70027e-05
 Reference value :  4.70032e-05
 Reference value :  4.70044e-05
 Reference value :  4.70052e-05
 Reference value :  4.70060e-05
 Reference value :  4.70067e-05
 Reference value :  4.70084e-05
 Reference value :  4.70103e-05
 Reference value :  4.70127e-05
 Reference value :  4.70355e-05
 Reference value :  4.71638e-05
 Reference value :  4.72501e-05
 Reference value :  4.72502e-05
 Reference value :  4.72502e-05
 Reference value :  4.72503e-05
 Reference value :  4.72504e-05
 Reference value :  4.72510e-05
 Reference value :  4.72515e-05
 Reference value :  4.72533e-05
 Reference value :  4.72544e-05
 Reference value :  4.72555e-05
 Reference value :  4.72571e-05
 Reference value :  4.72602e-05
 Reference value :  4.72671e-05
 Reference value :  4.72958e-05
 Reference value :  4.74604e-05
 Reference value :  4.75000e-05
[...]
 Reference value :  1.66504e-04
 Reference value :  1.66505e-04
 Reference value :  1.66507e-04
 Reference value :  1.66510e-04
 Reference value :  1.66513e-04
 Reference value :  1.66515e-04
 Reference value :  1.66517e-04
 Reference value :  1.66521e-04
 Reference value :  1.66531e-04
 Reference value :  1.66543e-04
 Reference value :  1.66547e-04
 Reference value :  1.66558e-04
 Reference value :  1.66576e-04
 Reference value :  1.66635e-04
 Reference value :  1.66750e-04
 Reference value :  1.66750e-04
 Reference value :  1.66750e-04
 Reference value :  1.66751e-04
 Reference value :  1.66753e-04
 Reference value :  1.66754e-04
 Reference value :  1.66755e-04
 Reference value :  1.66756e-04
 Reference value :  1.66759e-04
 Reference value :  1.66772e-04
 Reference value :  1.66863e-04
 Reference value :  1.67000e-04
 Reference value :  1.67000e-04
 Reference value :  1.67000e-04
 Reference value :  1.67000e-04
 Reference value :  1.67001e-04
 Reference value :  1.67002e-04
 Reference value :  1.67003e-04
 Reference value :  1.67003e-04
 Reference value :  1.67004e-04
 Reference value :  1.67006e-04
 Reference value :  1.67007e-04
 Reference value :  1.67008e-04
 Reference value :  1.67011e-04
 Reference value :  1.67025e-04
 Reference value :  1.67091e-04
 Reference value :  1.67250e-04
 Reference value :  1.67250e-04
 Reference value :  1.67250e-04
 Reference value :  1.67251e-04
 Reference value :  1.67252e-04
 Reference value :  1.67253e-04
 Reference value :  1.67254e-04
 Reference value :  1.67255e-04
 Reference value :  1.67256e-04
 Reference value :  1.67259e-04
 Reference value :  1.67264e-04
 Reference value :  1.67296e-04
 Reference value :  1.67500e-04
 Reference value :  1.67500e-04
 Reference value :  1.67500e-04
 Reference value :  1.67500e-04
 Reference value :  1.67501e-04
 Reference value :  1.67501e-04
 Reference value :  1.67502e-04
 Reference value :  1.67503e-04
 Reference value :  1.67504e-04
 Reference value :  1.67505e-04
 Reference value :  1.67506e-04
 Reference value :  1.67507e-04
 Reference value :  1.67509e-04
 Reference value :  1.67510e-04
 Reference value :  1.67513e-04
 Reference value :  1.67514e-04
 Reference value :  1.67516e-04
 Reference value :  1.67519e-04
 Reference value :  1.67522e-04
 Reference value :  1.67527e-04
 Reference value :  1.67529e-04
 Reference value :  1.67533e-04
 Reference value :  1.67541e-04
 Reference value :  1.67587e-04
 Reference value :  1.67688e-04
 Reference value :  1.67750e-04
 Reference value :  1.67750e-04
 Reference value :  1.67750e-04
 Reference value :  1.67751e-04
 Reference value :  1.67751e-04
 Reference value :  1.67753e-04
 Reference value :  1.67754e-04
 Reference value :  1.67755e-04
 Reference value :  1.67756e-04
 Reference value :  1.67762e-04
 Reference value :  1.67786e-04
 Reference value :  1.67983e-04
 Reference value :  1.68000e-04
 Reference value :  1.68000e-04
 Reference value :  1.68000e-04
 Reference value :  1.68000e-04
 Reference value :  1.68001e-04
 Reference value :  1.68001e-04
 Reference value :  1.68002e-04
 Reference value :  1.68003e-04
 Reference value :  1.68005e-04
 Reference value :  1.68006e-04
 Reference value :  1.68007e-04
 Reference value :  1.68009e-04
 Reference value :  1.68011e-04
 Reference value :  1.68028e-04
 Reference value :  1.68250e-04
 Reference value :  1.68250e-04
 Reference value :  1.68250e-04
 Reference value :  1.68251e-04
 Reference value :  1.68252e-04
 Reference value :  1.68253e-04
 Reference value :  1.68254e-04
 Reference value :  1.68255e-04
 Reference value :  1.68257e-04
 Reference value :  1.68264e-04
 Reference value :  1.68304e-04
 Reference value :  1.68500e-04
 Reference value :  1.68500e-04
 Reference value :  1.68500e-04
 Reference value :  1.68501e-04
 Reference value :  1.68502e-04
 Reference value :  1.68503e-04
 Reference value :  1.68505e-04
 Reference value :  1.68506e-04
 Reference value :  1.68507e-04
 Reference value :  1.68510e-04
 Reference value :  1.68514e-04
 Reference value :  1.68517e-04
 Reference value :  1.68521e-04
 Reference value :  1.68538e-04
 Reference value :  1.68584e-04
 Reference value :  1.68607e-04
 Reference value :  1.68640e-04
 Reference value :  1.68661e-04
 Reference value :  1.68713e-04
 Reference value :  1.68750e-04
 Reference value :  1.68750e-04
 Reference value :  1.68750e-04
 Reference value :  1.68750e-04
 Reference value :  1.68751e-04
 Reference value :  1.68753e-04
 Reference value :  1.68754e-04
 Reference value :  1.68755e-04
 Reference value :  1.68758e-04
 Reference value :  1.68765e-04
 Reference value :  1.68810e-04
 Reference value :  1.69000e-04
 Reference value :  1.69000e-04
 Reference value :  1.69000e-04
 Reference value :  1.69000e-04
 Reference value :  1.69001e-04
 Reference value :  1.69002e-04
 Reference value :  1.69003e-04
 Reference value :  1.69005e-04
 Reference value :  1.69007e-04
 Reference value :  1.69008e-04
 Reference value :  1.69011e-04
 Reference value :  1.69036e-04
 Reference value :  1.69250e-04
 Reference value :  1.69250e-04
 Reference value :  1.69251e-04
 Reference value :  1.69252e-04
 Reference value :  1.69254e-04
 Reference value :  1.69255e-04
 Reference value :  1.69258e-04
 Reference value :  1.69273e-04
 Reference value :  1.69500e-04
 Reference value :  1.69500e-04
 Reference value :  1.69501e-04
 Reference value :  1.69502e-04
 Reference value :  1.69504e-04
 Reference value :  1.69505e-04
 Reference value :  1.69506e-04
 Reference value :  1.69508e-04
 Reference value :  1.69510e-04
 Reference value :  1.69514e-04
 Reference value :  1.69517e-04
 Reference value :  1.69524e-04
 Reference value :  1.69570e-04
 Reference value :  1.69750e-04
 Reference value :  1.69750e-04
 Reference value :  1.69751e-04
 Reference value :  1.69752e-04
 Reference value :  1.69754e-04
 Reference value :  1.69759e-04
 Reference value :  1.69835e-04
 Reference value :  1.70000e-04
 Reference value :  1.70000e-04
 Reference value :  1.70000e-04
 Reference value :  1.70000e-04
 Reference value :  1.70000e-04
 Reference value :  1.70002e-04
 Reference value :  1.70003e-04
 Reference value :  1.70005e-04
 Reference value :  1.70007e-04
 Reference value :  1.70019e-04
 Reference value :  1.70024e-04
 Reference value :  1.70029e-04
 Reference value :  1.70032e-04
 Reference value :  1.70037e-04
 Reference value :  1.70041e-04
 Reference value :  1.70053e-04
 Reference value :  1.70077e-04
 Reference value :  1.70141e-04
 Reference value :  1.70250e-04
 Reference value :  1.70250e-04
 Reference value :  1.70250e-04
 Reference value :  1.70251e-04
 Reference value :  1.70252e-04
 Reference value :  1.70254e-04
 Reference value :  1.70255e-04
 Reference value :  1.70258e-04
 Reference value :  1.70286e-04
 Reference value :  1.70500e-04
 Reference value :  1.70500e-04
 Reference value :  1.70500e-04
 Reference value :  1.70502e-04
 Reference value :  1.70503e-04
 Reference value :  1.70505e-04
 Reference value :  1.70508e-04
 Reference value :  1.70511e-04
 Reference value :  1.70515e-04
 Reference value :  1.70521e-04
 Reference value :  1.70559e-04
 Reference value :  1.70750e-04
 Reference value :  1.70750e-04
 Reference value :  1.70750e-04
 Reference value :  1.70750e-04
 Reference value :  1.70752e-04
 Reference value :  1.70753e-04
 Reference value :  1.70754e-04
 Reference value :  1.70755e-04
 Reference value :  1.70756e-04
 Reference value :  1.70761e-04
 Reference value :  1.70804e-04
 Reference value :  1.71000e-04
 Reference value :  1.71000e-04
 Reference value :  1.71000e-04
 Reference value :  1.71001e-04
 Reference value :  1.71002e-04
 Reference value :  1.71003e-04
 Reference value :  1.71005e-04
 Reference value :  1.71008e-04
 Reference value :  1.71011e-04
 Reference value :  1.71014e-04
 Reference value :  1.71017e-04
 Reference value :  1.71021e-04
 Reference value :  1.71040e-04
 Reference value :  1.71058e-04
 Reference value :  1.71075e-04
 Reference value :  1.71088e-04
 Reference value :  1.71131e-04
 Reference value :  1.71238e-04
 Reference value :  1.71250e-04
 Reference value :  1.71250e-04
 Reference value :  1.71250e-04
 Reference value :  1.71251e-04
 Reference value :  1.71252e-04
 Reference value :  1.71254e-04
 Reference value :  1.71255e-04
 Reference value :  1.71258e-04
 Reference value :  1.71265e-04
 Reference value :  1.71311e-04
 Reference value :  1.71500e-04
 Reference value :  1.71500e-04
 Reference value :  1.71500e-04
 Reference value :  1.71501e-04
 Reference value :  1.71501e-04
 Reference value :  1.71502e-04
 Reference value :  1.71504e-04
 Reference value :  1.71505e-04
 Reference value :  1.71507e-04
 Reference value :  1.71508e-04
 Reference value :  1.71511e-04
 Reference value :  1.71525e-04
 Reference value :  1.71664e-04
 Reference value :  1.71750e-04
 Reference value :  1.71750e-04
 Reference value :  1.71751e-04
 Reference value :  1.71752e-04
 Reference value :  1.71753e-04
 Reference value :  1.71755e-04
 Reference value :  1.71756e-04
 Reference value :  1.71759e-04
 Reference value :  1.71767e-04
 Reference value :  1.71820e-04
 Reference value :  1.72000e-04
 Reference value :  1.72000e-04
 Reference value :  1.72001e-04
 Reference value :  1.72003e-04
 Reference value :  1.72004e-04
 Reference value :  1.72006e-04
 Reference value :  1.72008e-04
 Reference value :  1.72010e-04
 Reference value :  1.72013e-04
 Reference value :  1.72015e-04
 Reference value :  1.72019e-04
 Reference value :  1.72028e-04
 Reference value :  1.72081e-04
 Reference value :  1.72176e-04
 Reference value :  1.72192e-04
 Reference value :  1.72250e-04
 Reference value :  1.72250e-04
 Reference value :  1.72250e-04
 Reference value :  1.72250e-04
 Reference value :  1.72251e-04
 Reference value :  1.72252e-04
 Reference value :  1.72253e-04
 Reference value :  1.72254e-04
 Reference value :  1.72255e-04
 Reference value :  1.72256e-04
 Reference value :  1.72259e-04
 Reference value :  1.72265e-04
 Reference value :  1.72315e-04
 Reference value :  1.72344e-04
 Reference value :  1.72371e-04
 Reference value :  1.72403e-04
 Reference value :  1.72425e-04
 Reference value :  1.72463e-04
 Reference value :  1.72500e-04
 Reference value :  1.72500e-04
 Reference value :  1.72500e-04
 Reference value :  1.72500e-04
 Reference value :  1.72501e-04
 Reference value :  1.72502e-04
 Reference value :  1.72503e-04
 Reference value :  1.72505e-04
 Reference value :  1.72507e-04
 Reference value :  1.72508e-04
 Reference value :  1.72510e-04
 Reference value :  1.72513e-04
 Reference value :  1.72525e-04
 Reference value :  1.72677e-04
 Reference value :  1.72750e-04
 Reference value :  1.72750e-04
 Reference value :  1.72750e-04
 Reference value :  1.72751e-04
 Reference value :  1.72752e-04
 Reference value :  1.72753e-04
 Reference value :  1.72754e-04
 Reference value :  1.72755e-04
 Reference value :  1.72756e-04
 Reference value :  1.72758e-04
 Reference value :  1.72760e-04
 Reference value :  1.72764e-04
 Reference value :  1.72781e-04
 Reference value :  1.72867e-04
 Reference value :  1.73000e-04
 Reference value :  1.73000e-04
 Reference value :  1.73000e-04
 Reference value :  1.73000e-04
 Reference value :  1.73000e-04
 Reference value :  1.73001e-04
 Reference value :  1.73002e-04
 Reference value :  1.73003e-04
 Reference value :  1.73003e-04
 Reference value :  1.73005e-04
 Reference value :  1.73006e-04
 Reference value :  1.73010e-04
 Reference value :  1.73013e-04
 Reference value :  1.73015e-04
 Reference value :  1.73019e-04
 Reference value :  1.73028e-04
 Reference value :  1.73037e-04
 Reference value :  1.73044e-04
 Reference value :  1.73056e-04
 Reference value :  1.73104e-04
 Reference value :  1.73250e-04
 Reference value :  1.73250e-04
 Reference value :  1.73250e-04
 Reference value :  1.73252e-04
 Reference value :  1.73253e-04
 Reference value :  1.73254e-04
 Reference value :  1.73256e-04
 Reference value :  1.73259e-04
 Reference value :  1.73286e-04
 Reference value :  1.73483e-04
 Reference value :  1.73500e-04
 Reference value :  1.73500e-04
 Reference value :  1.73500e-04
 Reference value :  1.73501e-04
 Reference value :  1.73503e-04
 Reference value :  1.73504e-04
 Reference value :  1.73506e-04
 Reference value :  1.73508e-04
 Reference value :  1.73510e-04
 Reference value :  1.73514e-04
 Reference value :  1.73581e-04
 Reference value :  1.73750e-04
 Reference value :  1.73750e-04
 Reference value :  1.73750e-04
 Reference value :  1.73751e-04
 Reference value :  1.73752e-04
 Reference value :  1.73753e-04
 Reference value :  1.73754e-04
 Reference value :  1.73755e-04
 Reference value :  1.73756e-04
 Reference value :  1.73764e-04
 Reference value :  1.73850e-04
 Reference value :  1.74000e-04
 Reference value :  1.74000e-04
 Reference value :  1.74000e-04
 Reference value :  1.74001e-04
 Reference value :  1.74002e-04
 Reference value :  1.74003e-04
 Reference value :  1.74004e-04
 Reference value :  1.74006e-04
 Reference value :  1.74008e-04
 Reference value :  1.74010e-04
 Reference value :  1.74013e-04
 Reference value :  1.74015e-04
 Reference value :  1.74017e-04
 Reference value :  1.74021e-04
 Reference value :  1.74039e-04
 Reference value :  1.74055e-04
 Reference value :  1.74077e-04
 Reference value :  1.74128e-04
 Reference value :  1.74167e-04
 Reference value :  1.74177e-04
 Reference value :  1.74197e-04
 Reference value :  1.74228e-04
 Reference value :  1.74250e-04
 Reference value :  1.74250e-04
 Reference value :  1.74250e-04
 Reference value :  1.74250e-04
 Reference value :  1.74251e-04
 Reference value :  1.74252e-04
 Reference value :  1.74253e-04
 Reference value :  1.74254e-04
 Reference value :  1.74255e-04
 Reference value :  1.74256e-04
 Reference value :  1.74259e-04
 Reference value :  1.74272e-04
 Reference value :  1.74371e-04
 Reference value :  1.74500e-04
 Reference value :  1.74500e-04
 Reference value :  1.74500e-04
 Reference value :  1.74500e-04
 Reference value :  1.74501e-04
 Reference value :  1.74501e-04
 Reference value :  1.74502e-04
 Reference value :  1.74503e-04
 Reference value :  1.74505e-04
 Reference value :  1.74506e-04
 Reference value :  1.74508e-04
 Reference value :  1.74511e-04
 Reference value :  1.74545e-04
 Reference value :  1.74750e-04
 Reference value :  1.74750e-04
 Reference value :  1.74750e-04
 Reference value :  1.74751e-04
 Reference value :  1.74752e-04
 Reference value :  1.74754e-04
 Reference value :  1.74755e-04
 Reference value :  1.74756e-04
 Reference value :  1.74764e-04
 Reference value :  1.74851e-04
 Reference value :  1.75000e-04
 Reference value :  1.75000e-04
 Reference value :  1.75001e-04
 Reference value :  1.75002e-04
 Reference value :  1.75003e-04
 Reference value :  1.75004e-04
 Reference value :  1.75006e-04
 Reference value :  1.75008e-04
 Reference value :  1.75010e-04
 Reference value :  1.75013e-04
 Reference value :  1.75015e-04
 Reference value :  1.75017e-04
 Reference value :  1.75019e-04
 Reference value :  1.75023e-04
 Reference value :  1.75031e-04
 Reference value :  1.75042e-04
 Reference value :  1.75054e-04
 Reference value :  1.75066e-04
 Reference value :  1.75079e-04
 Reference value :  1.75118e-04
 Reference value :  1.75250e-04
 Reference value :  1.75250e-04
 Reference value :  1.75250e-04
 Reference value :  1.75251e-04
 Reference value :  1.75253e-04
 Reference value :  1.75254e-04
 Reference value :  1.75256e-04
 Reference value :  1.75259e-04
 Reference value :  1.75272e-04
 Reference value :  1.75362e-04
 Reference value :  1.75500e-04
 Reference value :  1.75500e-04
 Reference value :  1.75500e-04
 Reference value :  1.75500e-04
 Reference value :  1.75501e-04
 Reference value :  1.75502e-04
 Reference value :  1.75503e-04
 Reference value :  1.75505e-04
 Reference value :  1.75507e-04
 Reference value :  1.75508e-04
 Reference value :  1.75510e-04
 Reference value :  1.75513e-04
 Reference value :  1.75536e-04
 Reference value :  1.75750e-04
 Reference value :  1.75750e-04
 Reference value :  1.75750e-04
 Reference value :  1.75751e-04
 Reference value :  1.75752e-04
 Reference value :  1.75753e-04
 Reference value :  1.75754e-04
 Reference value :  1.75755e-04
 Reference value :  1.75756e-04
 Reference value :  1.75759e-04
 Reference value :  1.75764e-04
 Reference value :  1.75796e-04
 Reference value :  1.76000e-04
 Reference value :  1.76000e-04
 Reference value :  1.76000e-04
 Reference value :  1.76001e-04
 Reference value :  1.76001e-04
 Reference value :  1.76003e-04
 Reference value :  1.76004e-04
 Reference value :  1.76005e-04
 Reference value :  1.76006e-04
 Reference value :  1.76008e-04
 Reference value :  1.76010e-04
 Reference value :  1.76013e-04
 Reference value :  1.76014e-04
 Reference value :  1.76016e-04
 Reference value :  1.76019e-04
 Reference value :  1.76024e-04
 Reference value :  1.76026e-04
 Reference value :  1.76029e-04
 Reference value :  1.76037e-04
 Reference value :  1.76112e-04
 Reference value :  1.76250e-04
 Reference value :  1.76250e-04
 Reference value :  1.76251e-04
 Reference value :  1.76253e-04
 Reference value :  1.76254e-04
 Reference value :  1.76256e-04
 Reference value :  1.76315e-04
 Reference value :  1.76500e-04
 Reference value :  1.76500e-04
 Reference value :  1.76502e-04
 Reference value :  1.76503e-04
 Reference value :  1.76506e-04
 Reference value :  1.76508e-04
 Reference value :  1.76511e-04
 Reference value :  1.76581e-04
 Reference value :  1.76750e-04
 Reference value :  1.76750e-04
 Reference value :  1.76752e-04
 Reference value :  1.76754e-04
 Reference value :  1.76755e-04
 Reference value :  1.76759e-04
 Reference value :  1.76804e-04
 Reference value :  1.77000e-04
 Reference value :  1.77000e-04
 Reference value :  1.77000e-04
 Reference value :  1.77001e-04
 Reference value :  1.77002e-04
 Reference value :  1.77003e-04
 Reference value :  1.77005e-04
 Reference value :  1.77006e-04
 Reference value :  1.77010e-04
 Reference value :  1.77013e-04
 Reference value :  1.77015e-04
 Reference value :  1.77017e-04
 Reference value :  1.77021e-04
 Reference value :  1.77038e-04
 Reference value :  1.77103e-04
 Reference value :  1.77250e-04
 Reference value :  1.77250e-04
 Reference value :  1.77250e-04
 Reference value :  1.77251e-04
 Reference value :  1.77252e-04
 Reference value :  1.77253e-04
 Reference value :  1.77254e-04
 Reference value :  1.77256e-04
 Reference value :  1.77262e-04
 Reference value :  1.77314e-04
 Reference value :  1.77500e-04
 Reference value :  1.77500e-04
 Reference value :  1.77500e-04
 Reference value :  1.77501e-04
 Reference value :  1.77502e-04
 Reference value :  1.77503e-04
 Reference value :  1.77505e-04
 Reference value :  1.77506e-04
 Reference value :  1.77508e-04
 Reference value :  1.77510e-04
 Reference value :  1.77514e-04
 Reference value :  1.77545e-04
 Reference value :  1.77750e-04
 Reference value :  1.77750e-04
 Reference value :  1.77750e-04
 Reference value :  1.77751e-04
 Reference value :  1.77751e-04
 Reference value :  1.77753e-04
 Reference value :  1.77754e-04
 Reference value :  1.77755e-04
 Reference value :  1.77757e-04
 Reference value :  1.77764e-04
 Reference value :  1.77804e-04
 Reference value :  1.78000e-04
 Reference value :  1.78000e-04
 Reference value :  1.78000e-04
 Reference value :  1.78000e-04
 Reference value :  1.78001e-04
 Reference value :  1.78002e-04
 Reference value :  1.78003e-04
 Reference value :  1.78004e-04
 Reference value :  1.78006e-04
 Reference value :  1.78007e-04
 Reference value :  1.78009e-04
 Reference value :  1.78014e-04
 Reference value :  1.78071e-04
 Reference value :  1.78250e-04
 Reference value :  1.78250e-04
 Reference value :  1.78250e-04
 Reference value :  1.78251e-04
 Reference value :  1.78251e-04
 Reference value :  1.78253e-04
 Reference value :  1.78254e-04
 Reference value :  1.78257e-04
 Reference value :  1.78263e-04
 Reference value :  1.78335e-04
No. of Data Rows : 25910
ngspice-44 done
