
Note: Compatibility modes selected: hs a


Circuit: ** sch_path: /home/issa/cace/sar-adc-using-sky130-pdk/runs/run_2025-09-19_21-35-32/parameters/sampling_rate/run_4/sampling_rate.sch

option SCALE: Scale is set to 1e-06 for instance and model parameters
option SCALE: Scale is set to 1e-06 for instance and model parameters
option SCALE: Scale is set to 1e-06 for instance and model parameters
option SCALE: Scale is set to 1e-06 for instance and model parameters
Doing analysis at TEMP = 27.000000 and TNOM = 27.000000

Using KLU as Direct Linear Solver
 Reference value :  0.00000e+00
 Reference value :  1.00000e-12
 Reference value :  2.00000e-12
 Reference value :  4.00000e-12
 Reference value :  8.00000e-12
 Reference value :  1.60000e-11
 Reference value :  3.20000e-11
 Reference value :  6.40000e-11
 Reference value :  1.00000e-10
 Reference value :  1.01503e-10
 Reference value :  1.04508e-10
 Reference value :  1.10520e-10
 Reference value :  1.22542e-10
 Reference value :  1.46587e-10
 Reference value :  1.94677e-10
 Reference value :  2.90857e-10
 Reference value :  4.36272e-10
 Reference value :  7.02956e-10
 Reference value :  1.20535e-09
 Reference value :  1.70416e-09
 Reference value :  2.47411e-09
 Reference value :  3.11207e-09
 Reference value :  3.80788e-09
 Reference value :  4.60823e-09
 Reference value :  5.35833e-09
 Reference value :  6.05201e-09
 Reference value :  6.79950e-09
 Reference value :  7.53507e-09
 Reference value :  8.36099e-09
 Reference value :  9.32629e-09
 Reference value :  1.03541e-08
 Reference value :  1.15334e-08
 Reference value :  1.28055e-08
 Reference value :  1.40768e-08
 Reference value :  1.56349e-08
 Reference value :  1.72585e-08
 Reference value :  1.85797e-08
 Reference value :  1.99895e-08
 Reference value :  2.13307e-08
 Reference value :  2.31354e-08
 Reference value :  2.51469e-08
 Reference value :  2.69821e-08
 Reference value :  2.94084e-08
 Reference value :  3.24948e-08
 Reference value :  3.65144e-08
 Reference value :  4.19770e-08
 Reference value :  4.83217e-08
 Reference value :  5.65588e-08
 Reference value :  6.54286e-08
 Reference value :  7.51703e-08
 Reference value :  8.16885e-08
 Reference value :  8.78107e-08
 Reference value :  9.43525e-08
 Reference value :  1.01225e-07
 Reference value :  1.10445e-07
 Reference value :  1.20840e-07
 Reference value :  1.34356e-07
 Reference value :  1.51068e-07
 Reference value :  1.72058e-07
 Reference value :  1.87896e-07
 Reference value :  2.09475e-07
 Reference value :  2.18791e-07
 Reference value :  2.27787e-07
 Reference value :  2.34912e-07
 Reference value :  2.42418e-07
 Reference value :  2.49487e-07
 Reference value :  2.50100e-07
 Reference value :  2.50110e-07
 Reference value :  2.50130e-07
 Reference value :  2.50170e-07
 Reference value :  2.50200e-07
 Reference value :  2.50201e-07
 Reference value :  2.50202e-07
 Reference value :  2.50204e-07
 Reference value :  2.50208e-07
 Reference value :  2.50216e-07
 Reference value :  2.50233e-07
 Reference value :  2.50267e-07
 Reference value :  2.50335e-07
 Reference value :  2.50414e-07
 Reference value :  2.50573e-07
 Reference value :  2.50730e-07
 Reference value :  2.51043e-07
 Reference value :  2.51385e-07
 Reference value :  2.51894e-07
 Reference value :  2.52462e-07
 Reference value :  2.53300e-07
 Reference value :  2.54133e-07
 Reference value :  2.55082e-07
 Reference value :  2.55804e-07
 Reference value :  2.56619e-07
 Reference value :  2.57554e-07
 Reference value :  2.58684e-07
 Reference value :  2.59946e-07
 Reference value :  2.62077e-07
 Reference value :  2.64169e-07
 Reference value :  2.67750e-07
 Reference value :  2.72500e-07
 Reference value :  2.82001e-07
 Reference value :  2.98645e-07
 Reference value :  3.26992e-07
 Reference value :  3.80527e-07
 Reference value :  4.72314e-07
 Reference value :  5.00000e-07
 Reference value :  5.00010e-07
 Reference value :  5.00030e-07
 Reference value :  5.00070e-07
 Reference value :  5.00100e-07
 Reference value :  5.00104e-07
 Reference value :  5.00112e-07
 Reference value :  5.00129e-07
 Reference value :  5.00162e-07
 Reference value :  5.00229e-07
 Reference value :  5.00362e-07
 Reference value :  5.00537e-07
 Reference value :  5.00888e-07
 Reference value :  5.01501e-07
 Reference value :  5.02193e-07
 Reference value :  5.02775e-07
 Reference value :  5.03498e-07
 Reference value :  5.04171e-07
 Reference value :  5.05160e-07
 Reference value :  5.06137e-07
 Reference value :  5.07127e-07
 Reference value :  5.08569e-07
 Reference value :  5.09935e-07
 Reference value :  5.11848e-07
 Reference value :  5.14103e-07
 Reference value :  5.15979e-07
 Reference value :  5.17950e-07
 Reference value :  5.20050e-07
 Reference value :  5.22602e-07
 Reference value :  5.25513e-07
 Reference value :  5.28285e-07
 Reference value :  5.33829e-07
 Reference value :  5.41660e-07
 Reference value :  5.51890e-07
 Reference value :  5.72350e-07
 Reference value :  6.06329e-07
 Reference value :  6.74288e-07
 Reference value :  7.50100e-07
 Reference value :  7.50110e-07
 Reference value :  7.50130e-07
 Reference value :  7.50170e-07
 Reference value :  7.50200e-07
 Reference value :  7.50201e-07
 Reference value :  7.50202e-07
 Reference value :  7.50205e-07
 Reference value :  7.50211e-07
 Reference value :  7.50224e-07
 Reference value :  7.50248e-07
 Reference value :  7.50297e-07
 Reference value :  7.50395e-07
 Reference value :  7.50590e-07
 Reference value :  7.50977e-07
 Reference value :  7.51389e-07
 Reference value :  7.51911e-07
 Reference value :  7.52518e-07
 Reference value :  7.53316e-07
 Reference value :  7.54225e-07
 Reference value :  7.55416e-07
 Reference value :  7.56522e-07
 Reference value :  7.57526e-07
 Reference value :  7.58616e-07
 Reference value :  7.59820e-07
 Reference value :  7.61116e-07
 Reference value :  7.62373e-07
 Reference value :  7.63828e-07
 Reference value :  7.66047e-07
 Reference value :  7.68380e-07
 Reference value :  7.72338e-07
 Reference value :  7.79953e-07
 Reference value :  7.91358e-07
 Reference value :  8.13246e-07
 Reference value :  8.49529e-07
 Reference value :  9.13743e-07
 Reference value :  1.00000e-06
 Reference value :  1.00001e-06
 Reference value :  1.00003e-06
 Reference value :  1.00007e-06
 Reference value :  1.00010e-06
 Reference value :  1.00010e-06
 Reference value :  1.00011e-06
 Reference value :  1.00013e-06
 Reference value :  1.00016e-06
 Reference value :  1.00023e-06
 Reference value :  1.00036e-06
 Reference value :  1.00054e-06
 Reference value :  1.00089e-06
 Reference value :  1.00150e-06
 Reference value :  1.00219e-06
 Reference value :  1.00281e-06
 Reference value :  1.00346e-06
 Reference value :  1.00415e-06
 Reference value :  1.00499e-06
 Reference value :  1.00589e-06
 Reference value :  1.00676e-06
 Reference value :  1.00765e-06
 Reference value :  1.00864e-06
 Reference value :  1.00966e-06
 Reference value :  1.01059e-06
 Reference value :  1.01205e-06
 Reference value :  1.01354e-06
 Reference value :  1.01595e-06
 Reference value :  1.01768e-06
 Reference value :  1.01951e-06
 Reference value :  1.02118e-06
 Reference value :  1.02265e-06
 Reference value :  1.02413e-06
 Reference value :  1.02572e-06
 Reference value :  1.02718e-06
 Reference value :  1.02898e-06
 Reference value :  1.03114e-06
 Reference value :  1.03351e-06
 Reference value :  1.03783e-06
 Reference value :  1.04394e-06
 Reference value :  1.05450e-06
 Reference value :  1.07276e-06
 Reference value :  1.10247e-06
 Reference value :  1.15534e-06
 Reference value :  1.22892e-06
 Reference value :  1.25010e-06
 Reference value :  1.25011e-06
 Reference value :  1.25013e-06
 Reference value :  1.25017e-06
 Reference value :  1.25020e-06
 Reference value :  1.25020e-06
 Reference value :  1.25020e-06
 Reference value :  1.25021e-06
 Reference value :  1.25021e-06
 Reference value :  1.25022e-06
 Reference value :  1.25025e-06
 Reference value :  1.25030e-06
 Reference value :  1.25039e-06
 Reference value :  1.25059e-06
 Reference value :  1.25094e-06
 Reference value :  1.25136e-06
 Reference value :  1.25188e-06
 Reference value :  1.25249e-06
 Reference value :  1.25326e-06
 Reference value :  1.25414e-06
 Reference value :  1.25528e-06
 Reference value :  1.25620e-06
 Reference value :  1.25716e-06
 Reference value :  1.25822e-06
 Reference value :  1.25980e-06
 Reference value :  1.26130e-06
 Reference value :  1.26378e-06
 Reference value :  1.26678e-06
 Reference value :  1.27221e-06
 Reference value :  1.28305e-06
 Reference value :  1.29376e-06
 Reference value :  1.30366e-06
 Reference value :  1.31118e-06
 Reference value :  1.31820e-06
 Reference value :  1.32386e-06
 Reference value :  1.32896e-06
 Reference value :  1.33757e-06
 Reference value :  1.34767e-06
 Reference value :  1.36250e-06
 Reference value :  1.37894e-06
 Reference value :  1.40842e-06
 Reference value :  1.44449e-06
 Reference value :  1.50000e-06
 Reference value :  1.50001e-06
 Reference value :  1.50003e-06
 Reference value :  1.50007e-06
 Reference value :  1.50010e-06
 Reference value :  1.50010e-06
 Reference value :  1.50011e-06
 Reference value :  1.50013e-06
 Reference value :  1.50016e-06
 Reference value :  1.50023e-06
 Reference value :  1.50036e-06
 Reference value :  1.50053e-06
 Reference value :  1.50087e-06
 Reference value :  1.50144e-06
 Reference value :  1.50221e-06
 Reference value :  1.50289e-06
 Reference value :  1.50356e-06
 Reference value :  1.50427e-06
 Reference value :  1.50524e-06
 Reference value :  1.50620e-06
 Reference value :  1.50716e-06
 Reference value :  1.50860e-06
 Reference value :  1.50998e-06
 Reference value :  1.51129e-06
 Reference value :  1.51271e-06
 Reference value :  1.51425e-06
 Reference value :  1.51593e-06
 Reference value :  1.51752e-06
 Reference value :  1.51964e-06
 Reference value :  1.52191e-06
 Reference value :  1.52594e-06
 Reference value :  1.53199e-06
 Reference value :  1.54254e-06
 Reference value :  1.56209e-06
 Reference value :  1.59629e-06
 Reference value :  1.62406e-06
 Reference value :  1.65129e-06
 Reference value :  1.66451e-06
 Reference value :  1.67740e-06
 Reference value :  1.68896e-06
 Reference value :  1.69816e-06
 Reference value :  1.70821e-06
 Reference value :  1.72553e-06
 Reference value :  1.74608e-06
 Reference value :  1.75010e-06
 Reference value :  1.75011e-06
 Reference value :  1.75013e-06
 Reference value :  1.75017e-06
 Reference value :  1.75020e-06
 Reference value :  1.75020e-06
 Reference value :  1.75020e-06
 Reference value :  1.75021e-06
 Reference value :  1.75021e-06
 Reference value :  1.75022e-06
 Reference value :  1.75025e-06
 Reference value :  1.75029e-06
 Reference value :  1.75039e-06
 Reference value :  1.75058e-06
 Reference value :  1.75092e-06
 Reference value :  1.75135e-06
 Reference value :  1.75187e-06
 Reference value :  1.75248e-06
 Reference value :  1.75324e-06
 Reference value :  1.75411e-06
 Reference value :  1.75529e-06
 Reference value :  1.75619e-06
 Reference value :  1.75714e-06
 Reference value :  1.75818e-06
 Reference value :  1.75930e-06
 Reference value :  1.76052e-06
 Reference value :  1.76182e-06
 Reference value :  1.76321e-06
 Reference value :  1.76539e-06
 Reference value :  1.76772e-06
 Reference value :  1.77129e-06
 Reference value :  1.77688e-06
 Reference value :  1.78805e-06
 Reference value :  1.81040e-06
 Reference value :  1.85511e-06
 Reference value :  1.94451e-06
 Reference value :  2.00000e-06
 Reference value :  2.00001e-06
 Reference value :  2.00003e-06
 Reference value :  2.00007e-06
 Reference value :  2.00010e-06
 Reference value :  2.00010e-06
 Reference value :  2.00011e-06
 Reference value :  2.00013e-06
 Reference value :  2.00016e-06
 Reference value :  2.00023e-06
 Reference value :  2.00036e-06
 Reference value :  2.00053e-06
 Reference value :  2.00087e-06
 Reference value :  2.00144e-06
 Reference value :  2.00221e-06
 Reference value :  2.00288e-06
 Reference value :  2.00356e-06
 Reference value :  2.00426e-06
 Reference value :  2.00523e-06
 Reference value :  2.00610e-06
 Reference value :  2.00688e-06
 Reference value :  2.00784e-06
 Reference value :  2.00888e-06
 Reference value :  2.00984e-06
 Reference value :  2.01085e-06
 Reference value :  2.01225e-06
 Reference value :  2.01383e-06
 Reference value :  2.01601e-06
 Reference value :  2.01759e-06
 Reference value :  2.01933e-06
 Reference value :  2.02126e-06
 Reference value :  2.02262e-06
 Reference value :  2.02390e-06
 Reference value :  2.02521e-06
 Reference value :  2.02662e-06
 Reference value :  2.02846e-06
 Reference value :  2.03014e-06
 Reference value :  2.03291e-06
 Reference value :  2.03631e-06
 Reference value :  2.04310e-06
 Reference value :  2.05440e-06
 Reference value :  2.06578e-06
 Reference value :  2.07635e-06
 Reference value :  2.08154e-06
 Reference value :  2.08656e-06
 Reference value :  2.09164e-06
 Reference value :  2.09962e-06
 Reference value :  2.10719e-06
 Reference value :  2.11961e-06
 Reference value :  2.13535e-06
 Reference value :  2.15907e-06
 Reference value :  2.19311e-06
 Reference value :  2.24546e-06
 Reference value :  2.25010e-06
 Reference value :  2.25011e-06
 Reference value :  2.25013e-06
 Reference value :  2.25017e-06
 Reference value :  2.25020e-06
 Reference value :  2.25020e-06
 Reference value :  2.25020e-06
 Reference value :  2.25021e-06
 Reference value :  2.25021e-06
 Reference value :  2.25022e-06
 Reference value :  2.25025e-06
 Reference value :  2.25030e-06
 Reference value :  2.25039e-06
 Reference value :  2.25059e-06
 Reference value :  2.25094e-06
 Reference value :  2.25136e-06
 Reference value :  2.25188e-06
 Reference value :  2.25249e-06
 Reference value :  2.25325e-06
 Reference value :  2.25413e-06
 Reference value :  2.25532e-06
 Reference value :  2.25622e-06
 Reference value :  2.25718e-06
 Reference value :  2.25825e-06
 Reference value :  2.25981e-06
 Reference value :  2.26127e-06
 Reference value :  2.26378e-06
 Reference value :  2.26677e-06
 Reference value :  2.27229e-06
 Reference value :  2.28333e-06
 Reference value :  2.30266e-06
 Reference value :  2.34133e-06
 Reference value :  2.40510e-06
 Reference value :  2.47273e-06
 Reference value :  2.50000e-06
 Reference value :  2.50001e-06
 Reference value :  2.50003e-06
 Reference value :  2.50007e-06
 Reference value :  2.50010e-06
 Reference value :  2.50010e-06
 Reference value :  2.50011e-06
 Reference value :  2.50013e-06
 Reference value :  2.50016e-06
 Reference value :  2.50023e-06
 Reference value :  2.50036e-06
 Reference value :  2.50053e-06
 Reference value :  2.50087e-06
 Reference value :  2.50144e-06
 Reference value :  2.50221e-06
 Reference value :  2.50289e-06
 Reference value :  2.50356e-06
 Reference value :  2.50427e-06
 Reference value :  2.50524e-06
 Reference value :  2.50620e-06
 Reference value :  2.50717e-06
 Reference value :  2.50862e-06
 Reference value :  2.51000e-06
 Reference value :  2.51129e-06
 Reference value :  2.51267e-06
 Reference value :  2.51419e-06
 Reference value :  2.51586e-06
 Reference value :  2.51743e-06
 Reference value :  2.51962e-06
 Reference value :  2.52191e-06
 Reference value :  2.52607e-06
 Reference value :  2.53234e-06
 Reference value :  2.54329e-06
 Reference value :  2.56378e-06
 Reference value :  2.59958e-06
 Reference value :  2.66810e-06
 Reference value :  2.75010e-06
 Reference value :  2.75011e-06
 Reference value :  2.75013e-06
 Reference value :  2.75017e-06
 Reference value :  2.75020e-06
 Reference value :  2.75020e-06
 Reference value :  2.75020e-06
 Reference value :  2.75021e-06
 Reference value :  2.75021e-06
 Reference value :  2.75022e-06
 Reference value :  2.75025e-06
 Reference value :  2.75029e-06
 Reference value :  2.75039e-06
 Reference value :  2.75058e-06
 Reference value :  2.75092e-06
 Reference value :  2.75134e-06
 Reference value :  2.75187e-06
 Reference value :  2.75248e-06
 Reference value :  2.75323e-06
 Reference value :  2.75411e-06
 Reference value :  2.75529e-06
 Reference value :  2.75619e-06
 Reference value :  2.75714e-06
 Reference value :  2.75818e-06
 Reference value :  2.75930e-06
 Reference value :  2.76052e-06
 Reference value :  2.76296e-06
 Reference value :  2.76558e-06
 Reference value :  2.77021e-06
 Reference value :  2.77855e-06
 Reference value :  2.79523e-06
 Reference value :  2.82860e-06
 Reference value :  2.89337e-06
 Reference value :  3.00000e-06
 Reference value :  3.00001e-06
 Reference value :  3.00003e-06
 Reference value :  3.00007e-06
 Reference value :  3.00010e-06
 Reference value :  3.00010e-06
 Reference value :  3.00011e-06
 Reference value :  3.00013e-06
 Reference value :  3.00016e-06
 Reference value :  3.00023e-06
 Reference value :  3.00036e-06
 Reference value :  3.00053e-06
 Reference value :  3.00087e-06
 Reference value :  3.00145e-06
 Reference value :  3.00221e-06
 Reference value :  3.00288e-06
 Reference value :  3.00356e-06
 Reference value :  3.00426e-06
 Reference value :  3.00525e-06
 Reference value :  3.00603e-06
 Reference value :  3.00685e-06
 Reference value :  3.00785e-06
 Reference value :  3.00893e-06
 Reference value :  3.01001e-06
 Reference value :  3.01102e-06
 Reference value :  3.01246e-06
 Reference value :  3.01411e-06
 Reference value :  3.01671e-06
 Reference value :  3.01868e-06
 Reference value :  3.02078e-06
 Reference value :  3.02227e-06
 Reference value :  3.02362e-06
 Reference value :  3.02498e-06
 Reference value :  3.02651e-06
 Reference value :  3.02826e-06
 Reference value :  3.03003e-06
 Reference value :  3.03275e-06
 Reference value :  3.03666e-06
 Reference value :  3.04349e-06
 Reference value :  3.05649e-06
 Reference value :  3.07051e-06
 Reference value :  3.09452e-06
 Reference value :  3.12700e-06
 Reference value :  3.16323e-06
 Reference value :  3.23571e-06
 Reference value :  3.25010e-06
 Reference value :  3.25011e-06
 Reference value :  3.25013e-06
 Reference value :  3.25017e-06
 Reference value :  3.25020e-06
 Reference value :  3.25020e-06
 Reference value :  3.25020e-06
 Reference value :  3.25021e-06
 Reference value :  3.25021e-06
 Reference value :  3.25022e-06
 Reference value :  3.25025e-06
 Reference value :  3.25030e-06
 Reference value :  3.25039e-06
 Reference value :  3.25059e-06
 Reference value :  3.25094e-06
 Reference value :  3.25136e-06
 Reference value :  3.25188e-06
 Reference value :  3.25249e-06
 Reference value :  3.25325e-06
 Reference value :  3.25413e-06
 Reference value :  3.25533e-06
 Reference value :  3.25623e-06
 Reference value :  3.25719e-06
 Reference value :  3.25827e-06
 Reference value :  3.25983e-06
 Reference value :  3.26129e-06
 Reference value :  3.26379e-06
 Reference value :  3.26681e-06
 Reference value :  3.27236e-06
 Reference value :  3.28346e-06
 Reference value :  3.30275e-06
 Reference value :  3.34135e-06
 Reference value :  3.41331e-06
 Reference value :  3.50000e-06
 Reference value :  3.50001e-06
 Reference value :  3.50003e-06
 Reference value :  3.50007e-06
 Reference value :  3.50010e-06
 Reference value :  3.50010e-06
 Reference value :  3.50011e-06
 Reference value :  3.50013e-06
 Reference value :  3.50016e-06
 Reference value :  3.50023e-06
 Reference value :  3.50036e-06
 Reference value :  3.50053e-06
 Reference value :  3.50087e-06
 Reference value :  3.50145e-06
 Reference value :  3.50221e-06
 Reference value :  3.50288e-06
 Reference value :  3.50356e-06
 Reference value :  3.50426e-06
 Reference value :  3.50524e-06
 Reference value :  3.50620e-06
 Reference value :  3.50717e-06
 Reference value :  3.50861e-06
 Reference value :  3.51000e-06
 Reference value :  3.51128e-06
 Reference value :  3.51265e-06
 Reference value :  3.51417e-06
 Reference value :  3.51583e-06
 Reference value :  3.51765e-06
 Reference value :  3.51966e-06
 Reference value :  3.52359e-06
 Reference value :  3.52962e-06
 Reference value :  3.54167e-06
 Reference value :  3.56453e-06
 Reference value :  3.60547e-06
 Reference value :  3.68681e-06
 Reference value :  3.75010e-06
 Reference value :  3.75011e-06
 Reference value :  3.75013e-06
 Reference value :  3.75017e-06
 Reference value :  3.75020e-06
 Reference value :  3.75020e-06
 Reference value :  3.75020e-06
 Reference value :  3.75021e-06
 Reference value :  3.75021e-06
 Reference value :  3.75022e-06
 Reference value :  3.75025e-06
 Reference value :  3.75030e-06
 Reference value :  3.75039e-06
 Reference value :  3.75059e-06
 Reference value :  3.75094e-06
 Reference value :  3.75136e-06
 Reference value :  3.75188e-06
 Reference value :  3.75249e-06
 Reference value :  3.75325e-06
 Reference value :  3.75413e-06
 Reference value :  3.75531e-06
 Reference value :  3.75623e-06
 Reference value :  3.75719e-06
 Reference value :  3.75822e-06
 Reference value :  3.75933e-06
 Reference value :  3.76056e-06
 Reference value :  3.76299e-06
 Reference value :  3.76566e-06
 Reference value :  3.77031e-06
 Reference value :  3.77879e-06
 Reference value :  3.79574e-06
 Reference value :  3.82933e-06
 Reference value :  3.89441e-06
 Reference value :  4.00000e-06
 Reference value :  4.00001e-06
 Reference value :  4.00003e-06
 Reference value :  4.00007e-06
 Reference value :  4.00010e-06
 Reference value :  4.00010e-06
 Reference value :  4.00011e-06
 Reference value :  4.00013e-06
 Reference value :  4.00016e-06
 Reference value :  4.00023e-06
 Reference value :  4.00036e-06
 Reference value :  4.00053e-06
 Reference value :  4.00087e-06
 Reference value :  4.00145e-06
 Reference value :  4.00221e-06
 Reference value :  4.00288e-06
 Reference value :  4.00356e-06
 Reference value :  4.00427e-06
 Reference value :  4.00525e-06
 Reference value :  4.00603e-06
 Reference value :  4.00685e-06
 Reference value :  4.00785e-06
 Reference value :  4.00893e-06
 Reference value :  4.00993e-06
 Reference value :  4.01098e-06
 Reference value :  4.01233e-06
 Reference value :  4.01406e-06
 Reference value :  4.01669e-06
 Reference value :  4.01868e-06
 Reference value :  4.02081e-06
 Reference value :  4.02231e-06
 Reference value :  4.02381e-06
 Reference value :  4.02519e-06
 Reference value :  4.02678e-06
 Reference value :  4.02842e-06
 Reference value :  4.03061e-06
 Reference value :  4.03286e-06
 Reference value :  4.03729e-06
 Reference value :  4.04380e-06
 Reference value :  4.05505e-06
 Reference value :  4.07149e-06
 Reference value :  4.09003e-06
 Reference value :  4.10695e-06
 Reference value :  4.12484e-06
 Reference value :  4.13711e-06
 Reference value :  4.14841e-06
 Reference value :  4.16246e-06
 Reference value :  4.17681e-06
 Reference value :  4.20108e-06
 Reference value :  4.22481e-06
 Reference value :  4.24137e-06
 Reference value :  4.25010e-06
 Reference value :  4.25011e-06
 Reference value :  4.25013e-06
 Reference value :  4.25017e-06
 Reference value :  4.25020e-06
 Reference value :  4.25020e-06
 Reference value :  4.25020e-06
 Reference value :  4.25021e-06
 Reference value :  4.25021e-06
 Reference value :  4.25022e-06
 Reference value :  4.25025e-06
 Reference value :  4.25030e-06
 Reference value :  4.25039e-06
 Reference value :  4.25059e-06
 Reference value :  4.25093e-06
 Reference value :  4.25136e-06
 Reference value :  4.25188e-06
 Reference value :  4.25249e-06
 Reference value :  4.25325e-06
 Reference value :  4.25413e-06
 Reference value :  4.25532e-06
 Reference value :  4.25623e-06
 Reference value :  4.25718e-06
 Reference value :  4.25826e-06
 Reference value :  4.25985e-06
 Reference value :  4.26130e-06
 Reference value :  4.26386e-06
 Reference value :  4.26683e-06
 Reference value :  4.27237e-06
 Reference value :  4.28346e-06
 Reference value :  4.30260e-06
 Reference value :  4.34088e-06
 Reference value :  4.41367e-06
 Reference value :  4.50000e-06
 Reference value :  4.50001e-06
 Reference value :  4.50003e-06
 Reference value :  4.50007e-06
 Reference value :  4.50010e-06
 Reference value :  4.50010e-06
 Reference value :  4.50011e-06
 Reference value :  4.50013e-06
 Reference value :  4.50016e-06
 Reference value :  4.50023e-06
 Reference value :  4.50036e-06
 Reference value :  4.50053e-06
 Reference value :  4.50087e-06
 Reference value :  4.50145e-06
 Reference value :  4.50221e-06
 Reference value :  4.50288e-06
 Reference value :  4.50355e-06
 Reference value :  4.50426e-06
 Reference value :  4.50524e-06
 Reference value :  4.50619e-06
 Reference value :  4.50716e-06
 Reference value :  4.50861e-06
 Reference value :  4.50999e-06
 Reference value :  4.51124e-06
 Reference value :  4.51251e-06
 Reference value :  4.51380e-06
 Reference value :  4.51532e-06
 Reference value :  4.51695e-06
 Reference value :  4.51869e-06
 Reference value :  4.52215e-06
 Reference value :  4.52907e-06
 Reference value :  4.54075e-06
 Reference value :  4.56410e-06
 Reference value :  4.60788e-06
 Reference value :  4.68968e-06
 Reference value :  4.75010e-06
 Reference value :  4.75011e-06
 Reference value :  4.75013e-06
 Reference value :  4.75017e-06
 Reference value :  4.75020e-06
 Reference value :  4.75020e-06
 Reference value :  4.75020e-06
 Reference value :  4.75021e-06
 Reference value :  4.75021e-06
 Reference value :  4.75022e-06
 Reference value :  4.75025e-06
 Reference value :  4.75030e-06
 Reference value :  4.75039e-06
 Reference value :  4.75059e-06
 Reference value :  4.75093e-06
 Reference value :  4.75136e-06
 Reference value :  4.75188e-06
 Reference value :  4.75249e-06
 Reference value :  4.75325e-06
 Reference value :  4.75413e-06
 Reference value :  4.75531e-06
 Reference value :  4.75622e-06
 Reference value :  4.75719e-06
 Reference value :  4.75822e-06
 Reference value :  4.75933e-06
 Reference value :  4.76055e-06
 Reference value :  4.76299e-06
 Reference value :  4.76566e-06
 Reference value :  4.77031e-06
 Reference value :  4.77879e-06
 Reference value :  4.79575e-06
 Reference value :  4.82918e-06
 Reference value :  4.89465e-06
 Reference value :  5.00000e-06
 Reference value :  5.00001e-06
 Reference value :  5.00003e-06
 Reference value :  5.00007e-06
 Reference value :  5.00010e-06
 Reference value :  5.00010e-06
 Reference value :  5.00011e-06
 Reference value :  5.00013e-06
 Reference value :  5.00016e-06
 Reference value :  5.00023e-06
 Reference value :  5.00036e-06
 Reference value :  5.00053e-06
 Reference value :  5.00087e-06
 Reference value :  5.00145e-06
 Reference value :  5.00221e-06
 Reference value :  5.00288e-06
 Reference value :  5.00356e-06
 Reference value :  5.00427e-06
 Reference value :  5.00525e-06
 Reference value :  5.00603e-06
 Reference value :  5.00686e-06
 Reference value :  5.00785e-06
 Reference value :  5.00873e-06
 Reference value :  5.00970e-06
 Reference value :  5.01067e-06
 Reference value :  5.01191e-06
 Reference value :  5.01363e-06
 Reference value :  5.01583e-06
 Reference value :  5.01810e-06
 Reference value :  5.02039e-06
 Reference value :  5.02206e-06
 Reference value :  5.02362e-06
 Reference value :  5.02524e-06
 Reference value :  5.02694e-06
 Reference value :  5.02899e-06
 Reference value :  5.03087e-06
 Reference value :  5.03368e-06
 Reference value :  5.03795e-06
 Reference value :  5.04406e-06
 Reference value :  5.05335e-06
 Reference value :  5.06191e-06
 Reference value :  5.06982e-06
 Reference value :  5.07579e-06
 Reference value :  5.08159e-06
 Reference value :  5.08795e-06
 Reference value :  5.09465e-06
 Reference value :  5.10122e-06
 Reference value :  5.10892e-06
 Reference value :  5.11748e-06
 Reference value :  5.13078e-06
 Reference value :  5.14661e-06
 Reference value :  5.16929e-06
 Reference value :  5.20009e-06
 Reference value :  5.24557e-06
 Reference value :  5.25010e-06
 Reference value :  5.25011e-06
 Reference value :  5.25013e-06
 Reference value :  5.25017e-06
 Reference value :  5.25020e-06
 Reference value :  5.25020e-06
 Reference value :  5.25020e-06
 Reference value :  5.25021e-06
 Reference value :  5.25021e-06
 Reference value :  5.25022e-06
 Reference value :  5.25025e-06
 Reference value :  5.25029e-06
 Reference value :  5.25039e-06
 Reference value :  5.25058e-06
 Reference value :  5.25092e-06
 Reference value :  5.25135e-06
 Reference value :  5.25187e-06
 Reference value :  5.25248e-06
 Reference value :  5.25324e-06
 Reference value :  5.25411e-06
 Reference value :  5.25523e-06
 Reference value :  5.25617e-06
 Reference value :  5.25713e-06
 Reference value :  5.25821e-06
 Reference value :  5.25977e-06
 Reference value :  5.26134e-06
 Reference value :  5.26379e-06
 Reference value :  5.26681e-06
 Reference value :  5.27216e-06
 Reference value :  5.28285e-06
 Reference value :  5.30168e-06
 Reference value :  5.33895e-06
 Reference value :  5.40980e-06
 Reference value :  5.50000e-06
 Reference value :  5.50001e-06
 Reference value :  5.50003e-06
 Reference value :  5.50007e-06
 Reference value :  5.50010e-06
 Reference value :  5.50010e-06
 Reference value :  5.50011e-06
 Reference value :  5.50013e-06
 Reference value :  5.50016e-06
 Reference value :  5.50023e-06
 Reference value :  5.50036e-06
 Reference value :  5.50053e-06
 Reference value :  5.50087e-06
 Reference value :  5.50145e-06
 Reference value :  5.50221e-06
 Reference value :  5.50283e-06
 Reference value :  5.50357e-06
 Reference value :  5.50423e-06
 Reference value :  5.50524e-06
 Reference value :  5.50625e-06
 Reference value :  5.50721e-06
 Reference value :  5.50858e-06
 Reference value :  5.51002e-06
 Reference value :  5.51127e-06
 Reference value :  5.51259e-06
 Reference value :  5.51382e-06
 Reference value :  5.51527e-06
 Reference value :  5.51675e-06
 Reference value :  5.51842e-06
 Reference value :  5.52176e-06
 Reference value :  5.52845e-06
 Reference value :  5.54059e-06
 Reference value :  5.56487e-06
 Reference value :  5.61218e-06
 Reference value :  5.70679e-06
 Reference value :  5.75010e-06
 Reference value :  5.75011e-06
 Reference value :  5.75013e-06
 Reference value :  5.75017e-06
 Reference value :  5.75020e-06
 Reference value :  5.75020e-06
 Reference value :  5.75020e-06
 Reference value :  5.75021e-06
 Reference value :  5.75021e-06
 Reference value :  5.75022e-06
 Reference value :  5.75025e-06
 Reference value :  5.75030e-06
 Reference value :  5.75039e-06
 Reference value :  5.75059e-06
 Reference value :  5.75094e-06
 Reference value :  5.75136e-06
 Reference value :  5.75188e-06
 Reference value :  5.75249e-06
 Reference value :  5.75326e-06
 Reference value :  5.75413e-06
 Reference value :  5.75531e-06
 Reference value :  5.75623e-06
 Reference value :  5.75720e-06
 Reference value :  5.75823e-06
 Reference value :  5.75934e-06
 Reference value :  5.76056e-06
 Reference value :  5.76184e-06
 Reference value :  5.76324e-06
 Reference value :  5.76536e-06
 Reference value :  5.76769e-06
 Reference value :  5.77129e-06
 Reference value :  5.77698e-06
 Reference value :  5.78836e-06
 Reference value :  5.81112e-06
 Reference value :  5.85616e-06
 Reference value :  5.94624e-06
 Reference value :  6.00000e-06
 Reference value :  6.00001e-06
 Reference value :  6.00003e-06
 Reference value :  6.00007e-06
 Reference value :  6.00010e-06
 Reference value :  6.00010e-06
 Reference value :  6.00011e-06
 Reference value :  6.00013e-06
 Reference value :  6.00016e-06
 Reference value :  6.00023e-06
 Reference value :  6.00036e-06
 Reference value :  6.00053e-06
 Reference value :  6.00087e-06
 Reference value :  6.00144e-06
 Reference value :  6.00221e-06
 Reference value :  6.00288e-06
 Reference value :  6.00356e-06
 Reference value :  6.00427e-06
 Reference value :  6.00514e-06
 Reference value :  6.00590e-06
 Reference value :  6.00673e-06
 Reference value :  6.00781e-06
 Reference value :  6.00879e-06
 Reference value :  6.00970e-06
 Reference value :  6.01079e-06
 Reference value :  6.01200e-06
 Reference value :  6.01389e-06
 Reference value :  6.01525e-06
 Reference value :  6.01673e-06
 Reference value :  6.01812e-06
 Reference value :  6.01974e-06
 Reference value :  6.02117e-06
 Reference value :  6.02236e-06
 Reference value :  6.02361e-06
 Reference value :  6.02488e-06
 Reference value :  6.02620e-06
 Reference value :  6.02795e-06
 Reference value :  6.02959e-06
 Reference value :  6.03229e-06
 Reference value :  6.03491e-06
 Reference value :  6.04015e-06
 Reference value :  6.04614e-06
 Reference value :  6.05216e-06
 Reference value :  6.05854e-06
 Reference value :  6.06575e-06
 Reference value :  6.07445e-06
 Reference value :  6.08772e-06
 Reference value :  6.10978e-06
 Reference value :  6.13211e-06
 Reference value :  6.15790e-06
 Reference value :  6.20148e-06
 Reference value :  6.25010e-06
 Reference value :  6.25011e-06
 Reference value :  6.25013e-06
 Reference value :  6.25017e-06
 Reference value :  6.25020e-06
 Reference value :  6.25020e-06
 Reference value :  6.25020e-06
 Reference value :  6.25021e-06
 Reference value :  6.25021e-06
 Reference value :  6.25022e-06
 Reference value :  6.25025e-06
 Reference value :  6.25030e-06
 Reference value :  6.25039e-06
 Reference value :  6.25059e-06
 Reference value :  6.25094e-06
 Reference value :  6.25136e-06
 Reference value :  6.25188e-06
 Reference value :  6.25249e-06
 Reference value :  6.25326e-06
 Reference value :  6.25413e-06
 Reference value :  6.25529e-06
 Reference value :  6.25619e-06
 Reference value :  6.25714e-06
 Reference value :  6.25820e-06
 Reference value :  6.25978e-06
 Reference value :  6.26124e-06
 Reference value :  6.26375e-06
 Reference value :  6.26669e-06
 Reference value :  6.27212e-06
 Reference value :  6.28297e-06
 Reference value :  6.30170e-06
 Reference value :  6.33917e-06
 Reference value :  6.41275e-06
 Reference value :  6.50000e-06
 Reference value :  6.50001e-06
 Reference value :  6.50003e-06
 Reference value :  6.50007e-06
 Reference value :  6.50010e-06
 Reference value :  6.50010e-06
 Reference value :  6.50011e-06
 Reference value :  6.50013e-06
 Reference value :  6.50016e-06
 Reference value :  6.50023e-06
 Reference value :  6.50036e-06
 Reference value :  6.50053e-06
 Reference value :  6.50087e-06
 Reference value :  6.50145e-06
 Reference value :  6.50221e-06
 Reference value :  6.50284e-06
 Reference value :  6.50350e-06
 Reference value :  6.50419e-06
 Reference value :  6.50515e-06
 Reference value :  6.50611e-06
 Reference value :  6.50705e-06
 Reference value :  6.50853e-06
 Reference value :  6.50989e-06
 Reference value :  6.51126e-06
 Reference value :  6.51281e-06
 Reference value :  6.51420e-06
 Reference value :  6.51571e-06
 Reference value :  6.51723e-06
 Reference value :  6.51901e-06
 Reference value :  6.52257e-06
 Reference value :  6.52843e-06
 Reference value :  6.54017e-06
 Reference value :  6.56232e-06
 Reference value :  6.60340e-06
 Reference value :  6.68554e-06
 Reference value :  6.75010e-06
 Reference value :  6.75011e-06
 Reference value :  6.75013e-06
 Reference value :  6.75017e-06
 Reference value :  6.75020e-06
 Reference value :  6.75020e-06
 Reference value :  6.75020e-06
 Reference value :  6.75021e-06
 Reference value :  6.75021e-06
 Reference value :  6.75022e-06
 Reference value :  6.75025e-06
 Reference value :  6.75030e-06
 Reference value :  6.75039e-06
 Reference value :  6.75059e-06
 Reference value :  6.75094e-06
 Reference value :  6.75136e-06
 Reference value :  6.75188e-06
 Reference value :  6.75249e-06
 Reference value :  6.75326e-06
 Reference value :  6.75413e-06
 Reference value :  6.75531e-06
 Reference value :  6.75623e-06
 Reference value :  6.75720e-06
 Reference value :  6.75823e-06
 Reference value :  6.75934e-06
 Reference value :  6.76058e-06
 Reference value :  6.76186e-06
 Reference value :  6.76326e-06
 Reference value :  6.76539e-06
 Reference value :  6.76771e-06
 Reference value :  6.77136e-06
 Reference value :  6.77711e-06
 Reference value :  6.78861e-06
 Reference value :  6.81160e-06
 Reference value :  6.85659e-06
 Reference value :  6.94656e-06
 Reference value :  7.00000e-06
 Reference value :  7.00001e-06
 Reference value :  7.00003e-06
 Reference value :  7.00007e-06
 Reference value :  7.00010e-06
 Reference value :  7.00010e-06
 Reference value :  7.00011e-06
 Reference value :  7.00013e-06
 Reference value :  7.00016e-06
 Reference value :  7.00023e-06
 Reference value :  7.00036e-06
 Reference value :  7.00053e-06
 Reference value :  7.00087e-06
 Reference value :  7.00144e-06
 Reference value :  7.00221e-06
 Reference value :  7.00288e-06
 Reference value :  7.00356e-06
 Reference value :  7.00427e-06
 Reference value :  7.00513e-06
 Reference value :  7.00590e-06
 Reference value :  7.00672e-06
 Reference value :  7.00780e-06
 Reference value :  7.00878e-06
 Reference value :  7.00974e-06
 Reference value :  7.01079e-06
 Reference value :  7.01204e-06
 Reference value :  7.01385e-06
 Reference value :  7.01516e-06
 Reference value :  7.01664e-06
 Reference value :  7.01808e-06
 Reference value :  7.01975e-06
 Reference value :  7.02134e-06
 Reference value :  7.02246e-06
 Reference value :  7.02360e-06
 Reference value :  7.02487e-06
 Reference value :  7.02615e-06
 Reference value :  7.02765e-06
 Reference value :  7.02909e-06
 Reference value :  7.03118e-06
 Reference value :  7.03347e-06
 Reference value :  7.03794e-06
 Reference value :  7.04275e-06
 Reference value :  7.04819e-06
 Reference value :  7.05473e-06
 Reference value :  7.05938e-06
 Reference value :  7.06497e-06
 Reference value :  7.07149e-06
 Reference value :  7.07859e-06
 Reference value :  7.09280e-06
 Reference value :  7.10876e-06
 Reference value :  7.12564e-06
 Reference value :  7.14716e-06
 Reference value :  7.16940e-06
 Reference value :  7.21390e-06
 Reference value :  7.25010e-06
 Reference value :  7.25011e-06
 Reference value :  7.25013e-06
 Reference value :  7.25017e-06
 Reference value :  7.25020e-06
 Reference value :  7.25020e-06
 Reference value :  7.25020e-06
 Reference value :  7.25021e-06
 Reference value :  7.25021e-06
 Reference value :  7.25022e-06
 Reference value :  7.25025e-06
 Reference value :  7.25029e-06
 Reference value :  7.25039e-06
 Reference value :  7.25058e-06
 Reference value :  7.25092e-06
 Reference value :  7.25135e-06
 Reference value :  7.25187e-06
 Reference value :  7.25248e-06
 Reference value :  7.25324e-06
 Reference value :  7.25412e-06
 Reference value :  7.25530e-06
 Reference value :  7.25621e-06
 Reference value :  7.25716e-06
 Reference value :  7.25823e-06
 Reference value :  7.25980e-06
 Reference value :  7.26126e-06
 Reference value :  7.26377e-06
 Reference value :  7.26675e-06
 Reference value :  7.27223e-06
 Reference value :  7.28318e-06
 Reference value :  7.30214e-06
 Reference value :  7.34007e-06
 Reference value :  7.41173e-06
 Reference value :  7.50000e-06
 Reference value :  7.50001e-06
 Reference value :  7.50003e-06
 Reference value :  7.50007e-06
 Reference value :  7.50010e-06
 Reference value :  7.50010e-06
 Reference value :  7.50011e-06
 Reference value :  7.50013e-06
 Reference value :  7.50016e-06
 Reference value :  7.50023e-06
 Reference value :  7.50036e-06
 Reference value :  7.50053e-06
 Reference value :  7.50087e-06
 Reference value :  7.50150e-06
 Reference value :  7.50218e-06
 Reference value :  7.50280e-06
 Reference value :  7.50345e-06
 Reference value :  7.50413e-06
 Reference value :  7.50512e-06
 Reference value :  7.50601e-06
 Reference value :  7.50701e-06
 Reference value :  7.50826e-06
 Reference value :  7.50973e-06
 Reference value :  7.51114e-06
 Reference value :  7.51283e-06
 Reference value :  7.51438e-06
 Reference value :  7.51607e-06
 Reference value :  7.51780e-06
 Reference value :  7.51970e-06
 Reference value :  7.52348e-06
 Reference value :  7.52972e-06
 Reference value :  7.54040e-06
 Reference value :  7.56133e-06
 Reference value :  7.59972e-06
 Reference value :  7.67124e-06
 Reference value :  7.75010e-06
 Reference value :  7.75011e-06
 Reference value :  7.75013e-06
 Reference value :  7.75017e-06
 Reference value :  7.75020e-06
 Reference value :  7.75020e-06
 Reference value :  7.75020e-06
 Reference value :  7.75021e-06
 Reference value :  7.75021e-06
 Reference value :  7.75022e-06
 Reference value :  7.75025e-06
 Reference value :  7.75030e-06
 Reference value :  7.75039e-06
 Reference value :  7.75059e-06
 Reference value :  7.75094e-06
 Reference value :  7.75136e-06
 Reference value :  7.75188e-06
 Reference value :  7.75249e-06
 Reference value :  7.75326e-06
 Reference value :  7.75414e-06
 Reference value :  7.75531e-06
 Reference value :  7.75626e-06
 Reference value :  7.75725e-06
 Reference value :  7.75827e-06
 Reference value :  7.75940e-06
 Reference value :  7.76065e-06
 Reference value :  7.76305e-06
 Reference value :  7.76585e-06
 Reference value :  7.77063e-06
 Reference value :  7.77977e-06
 Reference value :  7.79800e-06
 Reference value :  7.83136e-06
 Reference value :  7.89801e-06
 Reference value :  8.00000e-06
 Reference value :  8.00001e-06
 Reference value :  8.00003e-06
 Reference value :  8.00007e-06
 Reference value :  8.00010e-06
 Reference value :  8.00010e-06
 Reference value :  8.00011e-06
 Reference value :  8.00013e-06
 Reference value :  8.00016e-06
 Reference value :  8.00023e-06
 Reference value :  8.00036e-06
 Reference value :  8.00053e-06
 Reference value :  8.00087e-06
 Reference value :  8.00150e-06
 Reference value :  8.00218e-06
 Reference value :  8.00280e-06
 Reference value :  8.00345e-06
 Reference value :  8.00414e-06
 Reference value :  8.00499e-06
 Reference value :  8.00588e-06
 Reference value :  8.00669e-06
 Reference value :  8.00773e-06
 Reference value :  8.00871e-06
 Reference value :  8.00974e-06
 Reference value :  8.01072e-06
 Reference value :  8.01204e-06
 Reference value :  8.01371e-06
 Reference value :  8.01602e-06
 Reference value :  8.01872e-06
 Reference value :  8.02109e-06
 Reference value :  8.02353e-06
 Reference value :  8.02726e-06
 Reference value :  8.03094e-06
 Reference value :  8.03735e-06
 Reference value :  8.04600e-06
 Reference value :  8.05945e-06
 Reference value :  8.08154e-06
 Reference value :  8.11898e-06
 Reference value :  8.18101e-06
 Reference value :  8.25010e-06
 Reference value :  8.25011e-06
 Reference value :  8.25013e-06
 Reference value :  8.25017e-06
 Reference value :  8.25020e-06
 Reference value :  8.25020e-06
 Reference value :  8.25020e-06
 Reference value :  8.25021e-06
 Reference value :  8.25021e-06
 Reference value :  8.25022e-06
 Reference value :  8.25025e-06
 Reference value :  8.25030e-06
 Reference value :  8.25039e-06
 Reference value :  8.25059e-06
 Reference value :  8.25098e-06
 Reference value :  8.25139e-06
 Reference value :  8.25189e-06
 Reference value :  8.25250e-06
 Reference value :  8.25330e-06
 Reference value :  8.25418e-06
 Reference value :  8.25526e-06
 Reference value :  8.25645e-06
 Reference value :  8.25784e-06
 Reference value :  8.25942e-06
 Reference value :  8.26126e-06
 Reference value :  8.26401e-06
 Reference value :  8.26675e-06
 Reference value :  8.27191e-06
 Reference value :  8.28224e-06
 Reference value :  8.29904e-06
 Reference value :  8.33253e-06
 Reference value :  8.39235e-06
 Reference value :  8.50000e-06
 Reference value :  8.50001e-06
 Reference value :  8.50003e-06
 Reference value :  8.50007e-06
 Reference value :  8.50010e-06
 Reference value :  8.50010e-06
 Reference value :  8.50011e-06
 Reference value :  8.50013e-06
 Reference value :  8.50016e-06
 Reference value :  8.50023e-06
 Reference value :  8.50036e-06
 Reference value :  8.50063e-06
 Reference value :  8.50109e-06
 Reference value :  8.50179e-06
 Reference value :  8.50270e-06
 Reference value :  8.50336e-06
 Reference value :  8.50415e-06
 Reference value :  8.50499e-06
 Reference value :  8.50589e-06
 Reference value :  8.50698e-06
 Reference value :  8.50836e-06
 Reference value :  8.51007e-06
 Reference value :  8.51231e-06
 Reference value :  8.51410e-06
 Reference value :  8.51597e-06
 Reference value :  8.51836e-06
 Reference value :  8.52086e-06
 Reference value :  8.52366e-06
 Reference value :  8.52797e-06
 Reference value :  8.53316e-06
 Reference value :  8.53691e-06
 Reference value :  8.53998e-06
 Reference value :  8.54288e-06
 Reference value :  8.54540e-06
 Reference value :  8.54750e-06
 Reference value :  8.54959e-06
 Reference value :  8.55128e-06
 Reference value :  8.55296e-06
 Reference value :  8.55457e-06
 Reference value :  8.55589e-06
 Reference value :  8.55728e-06
 Reference value :  8.55900e-06
 Reference value :  8.56151e-06
 Reference value :  8.56653e-06
 Reference value :  8.57106e-06
 Reference value :  8.57578e-06
 Reference value :  8.58253e-06
 Reference value :  8.58962e-06
 Reference value :  8.59832e-06
 Reference value :  8.60747e-06
 Reference value :  8.62072e-06
 Reference value :  8.63944e-06
 Reference value :  8.65885e-06
 Reference value :  8.68499e-06
 Reference value :  8.71479e-06
 Reference value :  8.75010e-06
 Reference value :  8.75011e-06
 Reference value :  8.75013e-06
 Reference value :  8.75017e-06
 Reference value :  8.75020e-06
 Reference value :  8.75020e-06
 Reference value :  8.75020e-06
 Reference value :  8.75021e-06
 Reference value :  8.75021e-06
 Reference value :  8.75022e-06
 Reference value :  8.75025e-06
 Reference value :  8.75030e-06
 Reference value :  8.75039e-06
 Reference value :  8.75059e-06
 Reference value :  8.75098e-06
 Reference value :  8.75139e-06
 Reference value :  8.75191e-06
 Reference value :  8.75252e-06
 Reference value :  8.75332e-06
 Reference value :  8.75421e-06
 Reference value :  8.75542e-06
 Reference value :  8.75639e-06
 Reference value :  8.75741e-06
 Reference value :  8.75855e-06
 Reference value :  8.76010e-06
 Reference value :  8.76184e-06
 Reference value :  8.76417e-06
 Reference value :  8.76777e-06
 Reference value :  8.77416e-06
 Reference value :  8.78645e-06
 Reference value :  8.80731e-06
 Reference value :  8.82707e-06
 Reference value :  8.84033e-06
 Reference value :  8.85035e-06
 Reference value :  8.85793e-06
 Reference value :  8.86437e-06
 Reference value :  8.87098e-06
 Reference value :  8.87777e-06
 Reference value :  8.88415e-06
 Reference value :  8.89691e-06
 Reference value :  8.91157e-06
 Reference value :  8.93471e-06
 Reference value :  8.96896e-06
 Reference value :  9.00000e-06
 Reference value :  9.00001e-06
 Reference value :  9.00003e-06
 Reference value :  9.00007e-06
 Reference value :  9.00010e-06
 Reference value :  9.00010e-06
 Reference value :  9.00011e-06
 Reference value :  9.00013e-06
 Reference value :  9.00016e-06
 Reference value :  9.00023e-06
 Reference value :  9.00036e-06
 Reference value :  9.00054e-06
 Reference value :  9.00089e-06
 Reference value :  9.00151e-06
 Reference value :  9.00220e-06
 Reference value :  9.00278e-06
 Reference value :  9.00350e-06
 Reference value :  9.00417e-06
 Reference value :  9.00516e-06
 Reference value :  9.00613e-06
 Reference value :  9.00709e-06
 Reference value :  9.00859e-06
 Reference value :  9.00994e-06
 Reference value :  9.01184e-06
 Reference value :  9.01410e-06
 Reference value :  9.01598e-06
 Reference value :  9.01795e-06
 Reference value :  9.01993e-06
 Reference value :  9.02218e-06
 Reference value :  9.02474e-06
 Reference value :  9.02745e-06
 Reference value :  9.03241e-06
 Reference value :  9.04058e-06
 Reference value :  9.05043e-06
 Reference value :  9.07012e-06
 Reference value :  9.10951e-06
 Reference value :  9.17868e-06
 Reference value :  9.25010e-06
 Reference value :  9.25011e-06
 Reference value :  9.25013e-06
 Reference value :  9.25017e-06
 Reference value :  9.25020e-06
 Reference value :  9.25020e-06
 Reference value :  9.25020e-06
 Reference value :  9.25021e-06
 Reference value :  9.25021e-06
 Reference value :  9.25022e-06
 Reference value :  9.25025e-06
 Reference value :  9.25030e-06
 Reference value :  9.25039e-06
 Reference value :  9.25059e-06
 Reference value :  9.25098e-06
 Reference value :  9.25139e-06
 Reference value :  9.25191e-06
 Reference value :  9.25252e-06
 Reference value :  9.25332e-06
 Reference value :  9.25422e-06
 Reference value :  9.25540e-06
 Reference value :  9.25647e-06
 Reference value :  9.25749e-06
 Reference value :  9.25855e-06
 Reference value :  9.25974e-06
 Reference value :  9.26103e-06
 Reference value :  9.26231e-06
 Reference value :  9.26375e-06
 Reference value :  9.26602e-06
 Reference value :  9.26827e-06
 Reference value :  9.27225e-06
 Reference value :  9.27929e-06
 Reference value :  9.28951e-06
 Reference value :  9.30858e-06
 Reference value :  9.33854e-06
 Reference value :  9.38968e-06
 Reference value :  9.49197e-06
 Reference value :  9.50000e-06
 Reference value :  9.50001e-06
 Reference value :  9.50003e-06
 Reference value :  9.50007e-06
 Reference value :  9.50010e-06
 Reference value :  9.50010e-06
 Reference value :  9.50011e-06
 Reference value :  9.50013e-06
 Reference value :  9.50016e-06
 Reference value :  9.50023e-06
 Reference value :  9.50036e-06
 Reference value :  9.50054e-06
 Reference value :  9.50089e-06
 Reference value :  9.50151e-06
 Reference value :  9.50220e-06
 Reference value :  9.50281e-06
 Reference value :  9.50346e-06
 Reference value :  9.50414e-06
 Reference value :  9.50499e-06
 Reference value :  9.50588e-06
 Reference value :  9.50676e-06
 Reference value :  9.50765e-06
 Reference value :  9.50864e-06
 Reference value :  9.50967e-06
 Reference value :  9.51060e-06
 Reference value :  9.51206e-06
 Reference value :  9.51356e-06
 Reference value :  9.51595e-06
 Reference value :  9.51768e-06
 Reference value :  9.51951e-06
 Reference value :  9.52119e-06
 Reference value :  9.52266e-06
 Reference value :  9.52412e-06
 Reference value :  9.52571e-06
 Reference value :  9.52717e-06
 Reference value :  9.52896e-06
 Reference value :  9.53111e-06
 Reference value :  9.53346e-06
 Reference value :  9.53774e-06
 Reference value :  9.54379e-06
 Reference value :  9.55420e-06
 Reference value :  9.57200e-06
 Reference value :  9.60093e-06
 Reference value :  9.65187e-06
 Reference value :  9.72615e-06
 Reference value :  9.75010e-06
 Reference value :  9.75011e-06
 Reference value :  9.75013e-06
 Reference value :  9.75017e-06
 Reference value :  9.75020e-06
 Reference value :  9.75020e-06
 Reference value :  9.75020e-06
 Reference value :  9.75021e-06
 Reference value :  9.75021e-06
 Reference value :  9.75022e-06
 Reference value :  9.75025e-06
 Reference value :  9.75030e-06
 Reference value :  9.75039e-06
 Reference value :  9.75059e-06
 Reference value :  9.75094e-06
 Reference value :  9.75136e-06
 Reference value :  9.75188e-06
 Reference value :  9.75249e-06
 Reference value :  9.75326e-06
 Reference value :  9.75414e-06
 Reference value :  9.75530e-06
 Reference value :  9.75619e-06
 Reference value :  9.75714e-06
 Reference value :  9.75820e-06
 Reference value :  9.75978e-06
 Reference value :  9.76124e-06
 Reference value :  9.76375e-06
 Reference value :  9.76670e-06
 Reference value :  9.77213e-06
 Reference value :  9.78299e-06
 Reference value :  9.79341e-06
 Reference value :  9.80320e-06
 Reference value :  9.81006e-06
 Reference value :  9.81655e-06
 Reference value :  9.82349e-06
 Reference value :  9.83082e-06
 Reference value :  9.84097e-06
 Reference value :  9.85266e-06
 Reference value :  9.86865e-06
 Reference value :  9.89007e-06
 Reference value :  9.91796e-06
 Reference value :  9.95657e-06
 Reference value :  1.00000e-05
 Reference value :  1.00000e-05
 Reference value :  1.00000e-05
 Reference value :  1.00001e-05
 Reference value :  1.00001e-05
 Reference value :  1.00001e-05
 Reference value :  1.00001e-05
 Reference value :  1.00001e-05
 Reference value :  1.00002e-05
 Reference value :  1.00002e-05
 Reference value :  1.00004e-05
 Reference value :  1.00005e-05
 Reference value :  1.00009e-05
 Reference value :  1.00014e-05
 Reference value :  1.00022e-05
 Reference value :  1.00029e-05
 Reference value :  1.00036e-05
 Reference value :  1.00043e-05
 Reference value :  1.00052e-05
 Reference value :  1.00062e-05
 Reference value :  1.00072e-05
 Reference value :  1.00086e-05
 Reference value :  1.00100e-05
 Reference value :  1.00113e-05
 Reference value :  1.00127e-05
 Reference value :  1.00143e-05
 Reference value :  1.00159e-05
 Reference value :  1.00175e-05
 Reference value :  1.00196e-05
 Reference value :  1.00219e-05
 Reference value :  1.00258e-05
 Reference value :  1.00317e-05
 Reference value :  1.00420e-05
 Reference value :  1.00609e-05
 Reference value :  1.00940e-05
 Reference value :  1.01214e-05
 Reference value :  1.01483e-05
 Reference value :  1.01615e-05
 Reference value :  1.01745e-05
 Reference value :  1.01857e-05
 Reference value :  1.01948e-05
 Reference value :  1.02048e-05
 Reference value :  1.02217e-05
 Reference value :  1.02423e-05
 Reference value :  1.02501e-05
 Reference value :  1.02501e-05
 Reference value :  1.02501e-05
 Reference value :  1.02502e-05
 Reference value :  1.02502e-05
 Reference value :  1.02502e-05
 Reference value :  1.02502e-05
 Reference value :  1.02502e-05
 Reference value :  1.02502e-05
 Reference value :  1.02502e-05
 Reference value :  1.02502e-05
 Reference value :  1.02503e-05
 Reference value :  1.02504e-05
 Reference value :  1.02506e-05
 Reference value :  1.02509e-05
 Reference value :  1.02513e-05
 Reference value :  1.02519e-05
 Reference value :  1.02525e-05
 Reference value :  1.02532e-05
 Reference value :  1.02541e-05
 Reference value :  1.02553e-05
 Reference value :  1.02562e-05
 Reference value :  1.02571e-05
 Reference value :  1.02582e-05
 Reference value :  1.02593e-05
 Reference value :  1.02605e-05
 Reference value :  1.02618e-05
 Reference value :  1.02632e-05
 Reference value :  1.02654e-05
 Reference value :  1.02677e-05
 Reference value :  1.02713e-05
 Reference value :  1.02769e-05
 Reference value :  1.02880e-05
 Reference value :  1.03104e-05
 Reference value :  1.03551e-05
 Reference value :  1.04445e-05
 Reference value :  1.05000e-05
 Reference value :  1.05000e-05
 Reference value :  1.05000e-05
 Reference value :  1.05001e-05
 Reference value :  1.05001e-05
 Reference value :  1.05001e-05
 Reference value :  1.05001e-05
 Reference value :  1.05001e-05
 Reference value :  1.05002e-05
 Reference value :  1.05002e-05
 Reference value :  1.05004e-05
 Reference value :  1.05005e-05
 Reference value :  1.05009e-05
 Reference value :  1.05014e-05
 Reference value :  1.05022e-05
 Reference value :  1.05029e-05
 Reference value :  1.05036e-05
 Reference value :  1.05043e-05
 Reference value :  1.05052e-05
 Reference value :  1.05061e-05
 Reference value :  1.05069e-05
 Reference value :  1.05078e-05
 Reference value :  1.05089e-05
 Reference value :  1.05098e-05
 Reference value :  1.05109e-05
 Reference value :  1.05122e-05
 Reference value :  1.05138e-05
 Reference value :  1.05160e-05
 Reference value :  1.05176e-05
 Reference value :  1.05193e-05
 Reference value :  1.05212e-05
 Reference value :  1.05226e-05
 Reference value :  1.05239e-05
 Reference value :  1.05252e-05
 Reference value :  1.05266e-05
 Reference value :  1.05282e-05
 Reference value :  1.05300e-05
 Reference value :  1.05326e-05
 Reference value :  1.05358e-05
 Reference value :  1.05423e-05
 Reference value :  1.05533e-05
 Reference value :  1.05646e-05
 Reference value :  1.05749e-05
 Reference value :  1.05809e-05
 Reference value :  1.05868e-05
 Reference value :  1.05934e-05
 Reference value :  1.06030e-05
 Reference value :  1.06119e-05
 Reference value :  1.06255e-05
 Reference value :  1.06436e-05
 Reference value :  1.06669e-05
 Reference value :  1.07009e-05
 Reference value :  1.07484e-05
 Reference value :  1.07501e-05
 Reference value :  1.07501e-05
 Reference value :  1.07501e-05
 Reference value :  1.07502e-05
 Reference value :  1.07502e-05
 Reference value :  1.07502e-05
 Reference value :  1.07502e-05
 Reference value :  1.07502e-05
 Reference value :  1.07502e-05
 Reference value :  1.07502e-05
 Reference value :  1.07502e-05
 Reference value :  1.07503e-05
 Reference value :  1.07504e-05
 Reference value :  1.07506e-05
 Reference value :  1.07509e-05
 Reference value :  1.07514e-05
 Reference value :  1.07519e-05
 Reference value :  1.07525e-05
 Reference value :  1.07533e-05
 Reference value :  1.07541e-05
 Reference value :  1.07553e-05
 Reference value :  1.07562e-05
 Reference value :  1.07572e-05
 Reference value :  1.07583e-05
 Reference value :  1.07598e-05
 Reference value :  1.07613e-05
 Reference value :  1.07638e-05
 Reference value :  1.07668e-05
 Reference value :  1.07723e-05
 Reference value :  1.07834e-05
 Reference value :  1.08023e-05
 Reference value :  1.08402e-05
 Reference value :  1.09105e-05
 Reference value :  1.09751e-05
 Reference value :  1.10000e-05
 Reference value :  1.10000e-05
 Reference value :  1.10000e-05
 Reference value :  1.10001e-05
 Reference value :  1.10001e-05
 Reference value :  1.10001e-05
 Reference value :  1.10001e-05
 Reference value :  1.10001e-05
 Reference value :  1.10002e-05
 Reference value :  1.10002e-05
 Reference value :  1.10004e-05
 Reference value :  1.10005e-05
 Reference value :  1.10009e-05
 Reference value :  1.10014e-05
 Reference value :  1.10022e-05
 Reference value :  1.10029e-05
 Reference value :  1.10036e-05
 Reference value :  1.10043e-05
 Reference value :  1.10052e-05
 Reference value :  1.10062e-05
 Reference value :  1.10072e-05
 Reference value :  1.10086e-05
 Reference value :  1.10100e-05
 Reference value :  1.10113e-05
 Reference value :  1.10127e-05
 Reference value :  1.10142e-05
 Reference value :  1.10159e-05
 Reference value :  1.10174e-05
 Reference value :  1.10196e-05
 Reference value :  1.10219e-05
 Reference value :  1.10260e-05
 Reference value :  1.10321e-05
 Reference value :  1.10429e-05
 Reference value :  1.10629e-05
 Reference value :  1.10979e-05
 Reference value :  1.11645e-05
 Reference value :  1.12501e-05
 Reference value :  1.12501e-05
 Reference value :  1.12501e-05
 Reference value :  1.12502e-05
 Reference value :  1.12502e-05
 Reference value :  1.12502e-05
 Reference value :  1.12502e-05
 Reference value :  1.12502e-05
 Reference value :  1.12502e-05
 Reference value :  1.12502e-05
 Reference value :  1.12502e-05
 Reference value :  1.12503e-05
 Reference value :  1.12504e-05
 Reference value :  1.12506e-05
 Reference value :  1.12509e-05
 Reference value :  1.12513e-05
 Reference value :  1.12519e-05
 Reference value :  1.12525e-05
 Reference value :  1.12532e-05
 Reference value :  1.12541e-05
 Reference value :  1.12553e-05
 Reference value :  1.12562e-05
 Reference value :  1.12571e-05
 Reference value :  1.12582e-05
 Reference value :  1.12593e-05
 Reference value :  1.12605e-05
 Reference value :  1.12630e-05
 Reference value :  1.12656e-05
 Reference value :  1.12702e-05
 Reference value :  1.12785e-05
 Reference value :  1.12952e-05
 Reference value :  1.13284e-05
 Reference value :  1.13930e-05
 Reference value :  1.15000e-05
 Reference value :  1.15000e-05
 Reference value :  1.15000e-05
 Reference value :  1.15001e-05
 Reference value :  1.15001e-05
 Reference value :  1.15001e-05
 Reference value :  1.15001e-05
 Reference value :  1.15001e-05
 Reference value :  1.15002e-05
 Reference value :  1.15002e-05
 Reference value :  1.15004e-05
 Reference value :  1.15005e-05
 Reference value :  1.15009e-05
 Reference value :  1.15014e-05
 Reference value :  1.15022e-05
 Reference value :  1.15029e-05
 Reference value :  1.15036e-05
 Reference value :  1.15043e-05
 Reference value :  1.15052e-05
 Reference value :  1.15060e-05
 Reference value :  1.15069e-05
 Reference value :  1.15078e-05
 Reference value :  1.15089e-05
 Reference value :  1.15100e-05
 Reference value :  1.15110e-05
 Reference value :  1.15125e-05
 Reference value :  1.15141e-05
 Reference value :  1.15167e-05
 Reference value :  1.15187e-05
 Reference value :  1.15208e-05
 Reference value :  1.15221e-05
 Reference value :  1.15235e-05
 Reference value :  1.15248e-05
 Reference value :  1.15263e-05
 Reference value :  1.15281e-05
 Reference value :  1.15299e-05
 Reference value :  1.15326e-05
 Reference value :  1.15357e-05
 Reference value :  1.15419e-05
 Reference value :  1.15535e-05
 Reference value :  1.15675e-05
 Reference value :  1.15885e-05
 Reference value :  1.16206e-05
 Reference value :  1.16563e-05
 Reference value :  1.17143e-05
 Reference value :  1.17501e-05
 Reference value :  1.17501e-05
 Reference value :  1.17501e-05
 Reference value :  1.17502e-05
 Reference value :  1.17502e-05
 Reference value :  1.17502e-05
 Reference value :  1.17502e-05
 Reference value :  1.17502e-05
 Reference value :  1.17502e-05
 Reference value :  1.17502e-05
 Reference value :  1.17502e-05
 Reference value :  1.17503e-05
 Reference value :  1.17504e-05
 Reference value :  1.17506e-05
 Reference value :  1.17509e-05
 Reference value :  1.17514e-05
 Reference value :  1.17519e-05
 Reference value :  1.17525e-05
 Reference value :  1.17533e-05
 Reference value :  1.17541e-05
 Reference value :  1.17553e-05
 Reference value :  1.17562e-05
 Reference value :  1.17572e-05
 Reference value :  1.17583e-05
 Reference value :  1.17598e-05
 Reference value :  1.17613e-05
 Reference value :  1.17638e-05
 Reference value :  1.17668e-05
 Reference value :  1.17724e-05
 Reference value :  1.17835e-05
 Reference value :  1.18025e-05
 Reference value :  1.18406e-05
 Reference value :  1.19110e-05
 Reference value :  1.20000e-05
 Reference value :  1.20000e-05
 Reference value :  1.20000e-05
 Reference value :  1.20001e-05
 Reference value :  1.20001e-05
 Reference value :  1.20001e-05
 Reference value :  1.20001e-05
 Reference value :  1.20001e-05
 Reference value :  1.20002e-05
 Reference value :  1.20002e-05
 Reference value :  1.20004e-05
 Reference value :  1.20005e-05
 Reference value :  1.20009e-05
 Reference value :  1.20014e-05
 Reference value :  1.20022e-05
 Reference value :  1.20029e-05
 Reference value :  1.20036e-05
 Reference value :  1.20043e-05
 Reference value :  1.20052e-05
 Reference value :  1.20062e-05
 Reference value :  1.20072e-05
 Reference value :  1.20086e-05
 Reference value :  1.20100e-05
 Reference value :  1.20113e-05
 Reference value :  1.20126e-05
 Reference value :  1.20142e-05
 Reference value :  1.20158e-05
 Reference value :  1.20176e-05
 Reference value :  1.20197e-05
 Reference value :  1.20236e-05
 Reference value :  1.20296e-05
 Reference value :  1.20416e-05
 Reference value :  1.20644e-05
 Reference value :  1.21052e-05
 Reference value :  1.21865e-05
 Reference value :  1.22501e-05
 Reference value :  1.22501e-05
 Reference value :  1.22501e-05
 Reference value :  1.22502e-05
 Reference value :  1.22502e-05
 Reference value :  1.22502e-05
 Reference value :  1.22502e-05
 Reference value :  1.22502e-05
 Reference value :  1.22502e-05
 Reference value :  1.22502e-05
 Reference value :  1.22502e-05
 Reference value :  1.22503e-05
 Reference value :  1.22504e-05
 Reference value :  1.22506e-05
 Reference value :  1.22509e-05
 Reference value :  1.22514e-05
 Reference value :  1.22519e-05
 Reference value :  1.22525e-05
 Reference value :  1.22533e-05
 Reference value :  1.22541e-05
 Reference value :  1.22553e-05
 Reference value :  1.22562e-05
 Reference value :  1.22572e-05
 Reference value :  1.22582e-05
 Reference value :  1.22593e-05
 Reference value :  1.22606e-05
 Reference value :  1.22630e-05
 Reference value :  1.22657e-05
 Reference value :  1.22703e-05
 Reference value :  1.22788e-05
 Reference value :  1.22957e-05
 Reference value :  1.23288e-05
 Reference value :  1.23947e-05
 Reference value :  1.25000e-05
 Reference value :  1.25000e-05
 Reference value :  1.25000e-05
 Reference value :  1.25001e-05
 Reference value :  1.25001e-05
 Reference value :  1.25001e-05
 Reference value :  1.25001e-05
 Reference value :  1.25001e-05
 Reference value :  1.25002e-05
 Reference value :  1.25002e-05
 Reference value :  1.25004e-05
 Reference value :  1.25005e-05
 Reference value :  1.25009e-05
 Reference value :  1.25014e-05
 Reference value :  1.25022e-05
 Reference value :  1.25029e-05
 Reference value :  1.25036e-05
 Reference value :  1.25043e-05
 Reference value :  1.25052e-05
 Reference value :  1.25060e-05
 Reference value :  1.25069e-05
 Reference value :  1.25078e-05
 Reference value :  1.25089e-05
 Reference value :  1.25099e-05
 Reference value :  1.25110e-05
 Reference value :  1.25123e-05
 Reference value :  1.25141e-05
 Reference value :  1.25167e-05
 Reference value :  1.25187e-05
 Reference value :  1.25208e-05
 Reference value :  1.25223e-05
 Reference value :  1.25238e-05
 Reference value :  1.25252e-05
 Reference value :  1.25268e-05
 Reference value :  1.25284e-05
 Reference value :  1.25306e-05
 Reference value :  1.25329e-05
 Reference value :  1.25373e-05
 Reference value :  1.25438e-05
 Reference value :  1.25551e-05
 Reference value :  1.25715e-05
 Reference value :  1.25901e-05
 Reference value :  1.26070e-05
 Reference value :  1.26249e-05
 Reference value :  1.26371e-05
 Reference value :  1.26484e-05
 Reference value :  1.26625e-05
 Reference value :  1.26768e-05
 Reference value :  1.27012e-05
 Reference value :  1.27250e-05
 Reference value :  1.27415e-05
 Reference value :  1.27501e-05
 Reference value :  1.27501e-05
 Reference value :  1.27501e-05
 Reference value :  1.27502e-05
 Reference value :  1.27502e-05
 Reference value :  1.27502e-05
 Reference value :  1.27502e-05
 Reference value :  1.27502e-05
 Reference value :  1.27502e-05
 Reference value :  1.27502e-05
 Reference value :  1.27502e-05
 Reference value :  1.27503e-05
 Reference value :  1.27504e-05
 Reference value :  1.27506e-05
 Reference value :  1.27509e-05
 Reference value :  1.27514e-05
 Reference value :  1.27519e-05
 Reference value :  1.27525e-05
 Reference value :  1.27533e-05
 Reference value :  1.27541e-05
 Reference value :  1.27553e-05
 Reference value :  1.27562e-05
 Reference value :  1.27572e-05
 Reference value :  1.27583e-05
 Reference value :  1.27598e-05
 Reference value :  1.27613e-05
 Reference value :  1.27639e-05
 Reference value :  1.27668e-05
 Reference value :  1.27724e-05
 Reference value :  1.27835e-05
 Reference value :  1.28024e-05
 Reference value :  1.28403e-05
 Reference value :  1.29141e-05
 Reference value :  1.30000e-05
 Reference value :  1.30000e-05
 Reference value :  1.30000e-05
 Reference value :  1.30001e-05
 Reference value :  1.30001e-05
 Reference value :  1.30001e-05
 Reference value :  1.30001e-05
 Reference value :  1.30001e-05
 Reference value :  1.30002e-05
 Reference value :  1.30002e-05
 Reference value :  1.30004e-05
 Reference value :  1.30005e-05
 Reference value :  1.30009e-05
 Reference value :  1.30014e-05
 Reference value :  1.30022e-05
 Reference value :  1.30029e-05
 Reference value :  1.30036e-05
 Reference value :  1.30043e-05
 Reference value :  1.30052e-05
 Reference value :  1.30062e-05
 Reference value :  1.30072e-05
 Reference value :  1.30086e-05
 Reference value :  1.30100e-05
 Reference value :  1.30112e-05
 Reference value :  1.30125e-05
 Reference value :  1.30138e-05
 Reference value :  1.30153e-05
 Reference value :  1.30170e-05
 Reference value :  1.30187e-05
 Reference value :  1.30221e-05
 Reference value :  1.30290e-05
 Reference value :  1.30407e-05
 Reference value :  1.30640e-05
 Reference value :  1.31077e-05
 Reference value :  1.31893e-05
 Reference value :  1.32501e-05
 Reference value :  1.32501e-05
 Reference value :  1.32501e-05
 Reference value :  1.32502e-05
 Reference value :  1.32502e-05
 Reference value :  1.32502e-05
 Reference value :  1.32502e-05
 Reference value :  1.32502e-05
 Reference value :  1.32502e-05
 Reference value :  1.32502e-05
 Reference value :  1.32502e-05
 Reference value :  1.32503e-05
 Reference value :  1.32504e-05
 Reference value :  1.32506e-05
 Reference value :  1.32509e-05
 Reference value :  1.32514e-05
 Reference value :  1.32519e-05
 Reference value :  1.32525e-05
 Reference value :  1.32533e-05
 Reference value :  1.32541e-05
 Reference value :  1.32553e-05
 Reference value :  1.32562e-05
 Reference value :  1.32572e-05
 Reference value :  1.32582e-05
 Reference value :  1.32593e-05
 Reference value :  1.32606e-05
 Reference value :  1.32630e-05
 Reference value :  1.32657e-05
 Reference value :  1.32703e-05
 Reference value :  1.32788e-05
 Reference value :  1.32957e-05
 Reference value :  1.33288e-05
 Reference value :  1.33942e-05
 Reference value :  1.35000e-05
 Reference value :  1.35000e-05
 Reference value :  1.35000e-05
 Reference value :  1.35001e-05
 Reference value :  1.35001e-05
 Reference value :  1.35001e-05
 Reference value :  1.35001e-05
 Reference value :  1.35001e-05
 Reference value :  1.35002e-05
 Reference value :  1.35002e-05
 Reference value :  1.35004e-05
 Reference value :  1.35005e-05
 Reference value :  1.35009e-05
 Reference value :  1.35014e-05
 Reference value :  1.35022e-05
 Reference value :  1.35029e-05
 Reference value :  1.35036e-05
 Reference value :  1.35043e-05
 Reference value :  1.35053e-05
 Reference value :  1.35060e-05
 Reference value :  1.35069e-05
 Reference value :  1.35079e-05
 Reference value :  1.35087e-05
 Reference value :  1.35097e-05
 Reference value :  1.35107e-05
 Reference value :  1.35119e-05
 Reference value :  1.35136e-05
 Reference value :  1.35158e-05
 Reference value :  1.35181e-05
 Reference value :  1.35204e-05
 Reference value :  1.35221e-05
 Reference value :  1.35236e-05
 Reference value :  1.35252e-05
 Reference value :  1.35269e-05
 Reference value :  1.35290e-05
 Reference value :  1.35309e-05
 Reference value :  1.35337e-05
 Reference value :  1.35380e-05
 Reference value :  1.35441e-05
 Reference value :  1.35533e-05
 Reference value :  1.35619e-05
 Reference value :  1.35698e-05
 Reference value :  1.35758e-05
 Reference value :  1.35816e-05
 Reference value :  1.35880e-05
 Reference value :  1.35947e-05
 Reference value :  1.36012e-05
 Reference value :  1.36089e-05
 Reference value :  1.36175e-05
 Reference value :  1.36308e-05
 Reference value :  1.36466e-05
 Reference value :  1.36692e-05
 Reference value :  1.36997e-05
 Reference value :  1.37444e-05
 Reference value :  1.37501e-05
 Reference value :  1.37501e-05
 Reference value :  1.37501e-05
 Reference value :  1.37502e-05
 Reference value :  1.37502e-05
 Reference value :  1.37502e-05
 Reference value :  1.37502e-05
 Reference value :  1.37502e-05
 Reference value :  1.37502e-05
 Reference value :  1.37502e-05
 Reference value :  1.37502e-05
 Reference value :  1.37503e-05
 Reference value :  1.37504e-05
 Reference value :  1.37506e-05
 Reference value :  1.37509e-05
 Reference value :  1.37513e-05
 Reference value :  1.37519e-05
 Reference value :  1.37525e-05
 Reference value :  1.37532e-05
 Reference value :  1.37541e-05
 Reference value :  1.37552e-05
 Reference value :  1.37562e-05
 Reference value :  1.37571e-05
 Reference value :  1.37582e-05
 Reference value :  1.37598e-05
 Reference value :  1.37613e-05
 Reference value :  1.37638e-05
 Reference value :  1.37668e-05
 Reference value :  1.37722e-05
 Reference value :  1.37829e-05
 Reference value :  1.38016e-05
 Reference value :  1.38387e-05
 Reference value :  1.39093e-05
 Reference value :  1.40000e-05
 Reference value :  1.40000e-05
 Reference value :  1.40000e-05
 Reference value :  1.40001e-05
 Reference value :  1.40001e-05
 Reference value :  1.40001e-05
 Reference value :  1.40001e-05
 Reference value :  1.40001e-05
 Reference value :  1.40002e-05
 Reference value :  1.40002e-05
 Reference value :  1.40004e-05
 Reference value :  1.40005e-05
 Reference value :  1.40009e-05
 Reference value :  1.40014e-05
 Reference value :  1.40022e-05
 Reference value :  1.40028e-05
 Reference value :  1.40036e-05
 Reference value :  1.40042e-05
 Reference value :  1.40052e-05
 Reference value :  1.40063e-05
 Reference value :  1.40072e-05
 Reference value :  1.40086e-05
 Reference value :  1.40100e-05
 Reference value :  1.40113e-05
 Reference value :  1.40126e-05
 Reference value :  1.40138e-05
 Reference value :  1.40153e-05
 Reference value :  1.40167e-05
 Reference value :  1.40184e-05
 Reference value :  1.40218e-05
 Reference value :  1.40284e-05
 Reference value :  1.40406e-05
 Reference value :  1.40648e-05
 Reference value :  1.41121e-05
 Reference value :  1.42066e-05
 Reference value :  1.42501e-05
 Reference value :  1.42501e-05
 Reference value :  1.42501e-05
 Reference value :  1.42502e-05
 Reference value :  1.42502e-05
 Reference value :  1.42502e-05
 Reference value :  1.42502e-05
 Reference value :  1.42502e-05
 Reference value :  1.42502e-05
 Reference value :  1.42502e-05
 Reference value :  1.42502e-05
 Reference value :  1.42503e-05
 Reference value :  1.42504e-05
 Reference value :  1.42506e-05
 Reference value :  1.42509e-05
 Reference value :  1.42514e-05
 Reference value :  1.42519e-05
 Reference value :  1.42525e-05
 Reference value :  1.42533e-05
 Reference value :  1.42541e-05
 Reference value :  1.42553e-05
 Reference value :  1.42562e-05
 Reference value :  1.42572e-05
 Reference value :  1.42582e-05
 Reference value :  1.42593e-05
 Reference value :  1.42606e-05
 Reference value :  1.42618e-05
 Reference value :  1.42632e-05
 Reference value :  1.42654e-05
 Reference value :  1.42677e-05
 Reference value :  1.42713e-05
 Reference value :  1.42770e-05
 Reference value :  1.42884e-05
 Reference value :  1.43111e-05
 Reference value :  1.43562e-05
 Reference value :  1.44463e-05
 Reference value :  1.45000e-05
 Reference value :  1.45000e-05
 Reference value :  1.45000e-05
 Reference value :  1.45001e-05
 Reference value :  1.45001e-05
 Reference value :  1.45001e-05
 Reference value :  1.45001e-05
 Reference value :  1.45001e-05
 Reference value :  1.45002e-05
 Reference value :  1.45002e-05
 Reference value :  1.45004e-05
 Reference value :  1.45005e-05
 Reference value :  1.45009e-05
 Reference value :  1.45014e-05
 Reference value :  1.45022e-05
 Reference value :  1.45029e-05
 Reference value :  1.45036e-05
 Reference value :  1.45043e-05
 Reference value :  1.45051e-05
 Reference value :  1.45059e-05
 Reference value :  1.45067e-05
 Reference value :  1.45078e-05
 Reference value :  1.45088e-05
 Reference value :  1.45097e-05
 Reference value :  1.45108e-05
 Reference value :  1.45120e-05
 Reference value :  1.45139e-05
 Reference value :  1.45152e-05
 Reference value :  1.45167e-05
 Reference value :  1.45181e-05
 Reference value :  1.45197e-05
 Reference value :  1.45212e-05
 Reference value :  1.45224e-05
 Reference value :  1.45236e-05
 Reference value :  1.45249e-05
 Reference value :  1.45262e-05
 Reference value :  1.45279e-05
 Reference value :  1.45296e-05
 Reference value :  1.45323e-05
 Reference value :  1.45349e-05
 Reference value :  1.45401e-05
 Reference value :  1.45461e-05
 Reference value :  1.45521e-05
 Reference value :  1.45584e-05
 Reference value :  1.45656e-05
 Reference value :  1.45743e-05
 Reference value :  1.45874e-05
 Reference value :  1.46093e-05
 Reference value :  1.46315e-05
 Reference value :  1.46572e-05
 Reference value :  1.47000e-05
 Reference value :  1.47501e-05
 Reference value :  1.47501e-05
 Reference value :  1.47501e-05
 Reference value :  1.47502e-05
 Reference value :  1.47502e-05
 Reference value :  1.47502e-05
 Reference value :  1.47502e-05
 Reference value :  1.47502e-05
 Reference value :  1.47502e-05
 Reference value :  1.47502e-05
 Reference value :  1.47502e-05
 Reference value :  1.47503e-05
 Reference value :  1.47504e-05
 Reference value :  1.47506e-05
 Reference value :  1.47509e-05
 Reference value :  1.47514e-05
 Reference value :  1.47519e-05
 Reference value :  1.47525e-05
 Reference value :  1.47533e-05
 Reference value :  1.47541e-05
 Reference value :  1.47553e-05
 Reference value :  1.47562e-05
 Reference value :  1.47571e-05
 Reference value :  1.47582e-05
 Reference value :  1.47598e-05
 Reference value :  1.47612e-05
 Reference value :  1.47638e-05
 Reference value :  1.47667e-05
 Reference value :  1.47721e-05
 Reference value :  1.47830e-05
 Reference value :  1.48016e-05
 Reference value :  1.48390e-05
 Reference value :  1.49124e-05
 Reference value :  1.50000e-05
 Reference value :  1.50000e-05
 Reference value :  1.50000e-05
 Reference value :  1.50001e-05
 Reference value :  1.50001e-05
 Reference value :  1.50001e-05
 Reference value :  1.50001e-05
 Reference value :  1.50001e-05
 Reference value :  1.50002e-05
 Reference value :  1.50002e-05
 Reference value :  1.50004e-05
 Reference value :  1.50005e-05
 Reference value :  1.50009e-05
 Reference value :  1.50014e-05
 Reference value :  1.50022e-05
 Reference value :  1.50028e-05
 Reference value :  1.50035e-05
 Reference value :  1.50042e-05
 Reference value :  1.50051e-05
 Reference value :  1.50061e-05
 Reference value :  1.50070e-05
 Reference value :  1.50085e-05
 Reference value :  1.50099e-05
 Reference value :  1.50113e-05
 Reference value :  1.50128e-05
 Reference value :  1.50142e-05
 Reference value :  1.50157e-05
 Reference value :  1.50172e-05
 Reference value :  1.50190e-05
 Reference value :  1.50226e-05
 Reference value :  1.50284e-05
 Reference value :  1.50401e-05
 Reference value :  1.50622e-05
 Reference value :  1.51032e-05
 Reference value :  1.51852e-05
 Reference value :  1.52501e-05
 Reference value :  1.52501e-05
 Reference value :  1.52501e-05
 Reference value :  1.52502e-05
 Reference value :  1.52502e-05
 Reference value :  1.52502e-05
 Reference value :  1.52502e-05
 Reference value :  1.52502e-05
 Reference value :  1.52502e-05
 Reference value :  1.52502e-05
 Reference value :  1.52502e-05
 Reference value :  1.52503e-05
 Reference value :  1.52504e-05
 Reference value :  1.52506e-05
 Reference value :  1.52509e-05
 Reference value :  1.52514e-05
 Reference value :  1.52519e-05
 Reference value :  1.52525e-05
 Reference value :  1.52533e-05
 Reference value :  1.52541e-05
 Reference value :  1.52553e-05
 Reference value :  1.52562e-05
 Reference value :  1.52572e-05
 Reference value :  1.52582e-05
 Reference value :  1.52593e-05
 Reference value :  1.52606e-05
 Reference value :  1.52619e-05
 Reference value :  1.52633e-05
 Reference value :  1.52654e-05
 Reference value :  1.52677e-05
 Reference value :  1.52714e-05
 Reference value :  1.52771e-05
 Reference value :  1.52886e-05
 Reference value :  1.53116e-05
 Reference value :  1.53566e-05
 Reference value :  1.54466e-05
 Reference value :  1.55000e-05
 Reference value :  1.55008e-05
 Reference value :  1.55023e-05
 Reference value :  1.55031e-05
 Reference value :  1.55038e-05
 Reference value :  1.55048e-05
 Reference value :  1.55058e-05
 Reference value :  1.55066e-05
 Reference value :  1.55075e-05
 Reference value :  1.55083e-05
 Reference value :  1.55093e-05
 Reference value :  1.55103e-05
 Reference value :  1.55116e-05
 Reference value :  1.55130e-05
 Reference value :  1.55149e-05
 Reference value :  1.55167e-05
 Reference value :  1.55185e-05
 Reference value :  1.55203e-05
 Reference value :  1.55218e-05
 Reference value :  1.55234e-05
 Reference value :  1.55250e-05
 Reference value :  1.55266e-05
 Reference value :  1.55283e-05
 Reference value :  1.55302e-05
 Reference value :  1.55332e-05
 Reference value :  1.55360e-05
 Reference value :  1.55406e-05
 Reference value :  1.55456e-05
 Reference value :  1.55519e-05
 Reference value :  1.55596e-05
 Reference value :  1.55659e-05
 Reference value :  1.55725e-05
 Reference value :  1.55804e-05
 Reference value :  1.55915e-05
 Reference value :  1.56050e-05
 Reference value :  1.56199e-05
 Reference value :  1.56370e-05
 Reference value :  1.56571e-05
 Reference value :  1.56974e-05
 Reference value :  1.57501e-05
 Reference value :  1.57501e-05
 Reference value :  1.57501e-05
 Reference value :  1.57502e-05
 Reference value :  1.57502e-05
 Reference value :  1.57502e-05
 Reference value :  1.57502e-05
 Reference value :  1.57502e-05
 Reference value :  1.57502e-05
 Reference value :  1.57502e-05
 Reference value :  1.57502e-05
 Reference value :  1.57503e-05
 Reference value :  1.57504e-05
 Reference value :  1.57506e-05
 Reference value :  1.57509e-05
 Reference value :  1.57514e-05
 Reference value :  1.57519e-05
 Reference value :  1.57525e-05
 Reference value :  1.57533e-05
 Reference value :  1.57541e-05
 Reference value :  1.57553e-05
 Reference value :  1.57562e-05
 Reference value :  1.57572e-05
 Reference value :  1.57583e-05
 Reference value :  1.57599e-05
 Reference value :  1.57614e-05
 Reference value :  1.57638e-05
 Reference value :  1.57670e-05
 Reference value :  1.57725e-05
 Reference value :  1.57837e-05
 Reference value :  1.58028e-05
 Reference value :  1.58407e-05
 Reference value :  1.59104e-05
 Reference value :  1.60000e-05
 Reference value :  1.60000e-05
 Reference value :  1.60000e-05
 Reference value :  1.60001e-05
 Reference value :  1.60001e-05
 Reference value :  1.60001e-05
 Reference value :  1.60001e-05
 Reference value :  1.60001e-05
 Reference value :  1.60002e-05
 Reference value :  1.60002e-05
 Reference value :  1.60004e-05
 Reference value :  1.60005e-05
 Reference value :  1.60009e-05
 Reference value :  1.60015e-05
 Reference value :  1.60022e-05
 Reference value :  1.60028e-05
 Reference value :  1.60034e-05
 Reference value :  1.60041e-05
 Reference value :  1.60050e-05
 Reference value :  1.60059e-05
 Reference value :  1.60069e-05
 Reference value :  1.60081e-05
 Reference value :  1.60096e-05
 Reference value :  1.60111e-05
 Reference value :  1.60125e-05
 Reference value :  1.60141e-05
 Reference value :  1.60159e-05
 Reference value :  1.60177e-05
 Reference value :  1.60198e-05
 Reference value :  1.60237e-05
 Reference value :  1.60293e-05
 Reference value :  1.60403e-05
 Reference value :  1.60590e-05
 Reference value :  1.60926e-05
 Reference value :  1.61555e-05
 Reference value :  1.62501e-05
 Reference value :  1.62501e-05
 Reference value :  1.62501e-05
 Reference value :  1.62502e-05
 Reference value :  1.62502e-05
 Reference value :  1.62502e-05
 Reference value :  1.62502e-05
 Reference value :  1.62502e-05
 Reference value :  1.62502e-05
 Reference value :  1.62502e-05
 Reference value :  1.62502e-05
 Reference value :  1.62503e-05
 Reference value :  1.62504e-05
 Reference value :  1.62506e-05
 Reference value :  1.62509e-05
 Reference value :  1.62514e-05
 Reference value :  1.62519e-05
 Reference value :  1.62525e-05
 Reference value :  1.62533e-05
 Reference value :  1.62541e-05
 Reference value :  1.62553e-05
 Reference value :  1.62563e-05
 Reference value :  1.62572e-05
 Reference value :  1.62583e-05
 Reference value :  1.62594e-05
 Reference value :  1.62606e-05
 Reference value :  1.62630e-05
 Reference value :  1.62658e-05
 Reference value :  1.62706e-05
 Reference value :  1.62797e-05
 Reference value :  1.62978e-05
 Reference value :  1.63310e-05
 Reference value :  1.63972e-05
 Reference value :  1.65000e-05
 Reference value :  1.65000e-05
 Reference value :  1.65000e-05
 Reference value :  1.65001e-05
 Reference value :  1.65001e-05
 Reference value :  1.65001e-05
 Reference value :  1.65001e-05
 Reference value :  1.65001e-05
 Reference value :  1.65002e-05
 Reference value :  1.65002e-05
 Reference value :  1.65004e-05
 Reference value :  1.65005e-05
 Reference value :  1.65009e-05
 Reference value :  1.65015e-05
 Reference value :  1.65022e-05
 Reference value :  1.65028e-05
 Reference value :  1.65035e-05
 Reference value :  1.65041e-05
 Reference value :  1.65050e-05
 Reference value :  1.65059e-05
 Reference value :  1.65067e-05
 Reference value :  1.65077e-05
 Reference value :  1.65087e-05
 Reference value :  1.65097e-05
 Reference value :  1.65107e-05
 Reference value :  1.65120e-05
 Reference value :  1.65137e-05
 Reference value :  1.65160e-05
 Reference value :  1.65187e-05
 Reference value :  1.65211e-05
 Reference value :  1.65235e-05
 Reference value :  1.65273e-05
 Reference value :  1.65309e-05
 Reference value :  1.65373e-05
 Reference value :  1.65460e-05
 Reference value :  1.65594e-05
 Reference value :  1.65814e-05
 Reference value :  1.66187e-05
 Reference value :  1.66804e-05
 Reference value :  1.67501e-05
 Reference value :  1.67501e-05
 Reference value :  1.67501e-05
 Reference value :  1.67502e-05
 Reference value :  1.67502e-05
 Reference value :  1.67502e-05
 Reference value :  1.67502e-05
 Reference value :  1.67502e-05
 Reference value :  1.67502e-05
 Reference value :  1.67502e-05
 Reference value :  1.67502e-05
 Reference value :  1.67503e-05
 Reference value :  1.67504e-05
 Reference value :  1.67506e-05
 Reference value :  1.67510e-05
 Reference value :  1.67514e-05
 Reference value :  1.67519e-05
 Reference value :  1.67525e-05
 Reference value :  1.67533e-05
 Reference value :  1.67542e-05
 Reference value :  1.67553e-05
 Reference value :  1.67564e-05
 Reference value :  1.67578e-05
 Reference value :  1.67594e-05
 Reference value :  1.67613e-05
 Reference value :  1.67640e-05
 Reference value :  1.67668e-05
 Reference value :  1.67719e-05
 Reference value :  1.67822e-05
 Reference value :  1.67990e-05
 Reference value :  1.68325e-05
 Reference value :  1.68923e-05
 Reference value :  1.70000e-05
 Reference value :  1.70017e-05
 Reference value :  1.70050e-05
 Reference value :  1.70068e-05
 Reference value :  1.70085e-05
 Reference value :  1.70108e-05
 Reference value :  1.70129e-05
 Reference value :  1.70147e-05
 Reference value :  1.70166e-05
 Reference value :  1.70187e-05
 Reference value :  1.70211e-05
 Reference value :  1.70238e-05
 Reference value :  1.70280e-05
 Reference value :  1.70334e-05
 Reference value :  1.70372e-05
 Reference value :  1.70403e-05
 Reference value :  1.70433e-05
 Reference value :  1.70461e-05
 Reference value :  1.70484e-05
 Reference value :  1.70506e-05
 Reference value :  1.70524e-05
 Reference value :  1.70542e-05
 Reference value :  1.70556e-05
 Reference value :  1.70571e-05
 Reference value :  1.70585e-05
 Reference value :  1.70599e-05
 Reference value :  1.70629e-05
 Reference value :  1.70678e-05
 Reference value :  1.70724e-05
 Reference value :  1.70773e-05
 Reference value :  1.70847e-05
 Reference value :  1.70916e-05
 Reference value :  1.71015e-05
 Reference value :  1.71104e-05
 Reference value :  1.71257e-05
 Reference value :  1.71455e-05
 Reference value :  1.71663e-05
 Reference value :  1.71929e-05
 Reference value :  1.72265e-05
 Reference value :  1.72501e-05
 Reference value :  1.72501e-05
 Reference value :  1.72501e-05
 Reference value :  1.72502e-05
 Reference value :  1.72502e-05
 Reference value :  1.72502e-05
 Reference value :  1.72502e-05
 Reference value :  1.72502e-05
 Reference value :  1.72502e-05
 Reference value :  1.72502e-05
 Reference value :  1.72502e-05
 Reference value :  1.72503e-05
 Reference value :  1.72504e-05
 Reference value :  1.72506e-05
 Reference value :  1.72510e-05
 Reference value :  1.72514e-05
 Reference value :  1.72519e-05
 Reference value :  1.72525e-05
 Reference value :  1.72533e-05
 Reference value :  1.72542e-05
 Reference value :  1.72554e-05
 Reference value :  1.72564e-05
 Reference value :  1.72574e-05
 Reference value :  1.72586e-05
 Reference value :  1.72601e-05
 Reference value :  1.72619e-05
 Reference value :  1.72642e-05
 Reference value :  1.72679e-05
 Reference value :  1.72743e-05
 Reference value :  1.72865e-05
 Reference value :  1.73074e-05
 Reference value :  1.73274e-05
 Reference value :  1.73408e-05
 Reference value :  1.73510e-05
 Reference value :  1.73585e-05
 Reference value :  1.73648e-05
 Reference value :  1.73714e-05
 Reference value :  1.73781e-05
 Reference value :  1.73844e-05
 Reference value :  1.73972e-05
 Reference value :  1.74117e-05
 Reference value :  1.74349e-05
 Reference value :  1.74690e-05
 Reference value :  1.75000e-05
 Reference value :  1.75000e-05
 Reference value :  1.75000e-05
 Reference value :  1.75001e-05
 Reference value :  1.75001e-05
 Reference value :  1.75001e-05
 Reference value :  1.75001e-05
 Reference value :  1.75001e-05
 Reference value :  1.75002e-05
 Reference value :  1.75002e-05
 Reference value :  1.75004e-05
 Reference value :  1.75005e-05
 Reference value :  1.75009e-05
 Reference value :  1.75015e-05
 Reference value :  1.75022e-05
 Reference value :  1.75028e-05
 Reference value :  1.75035e-05
 Reference value :  1.75042e-05
 Reference value :  1.75052e-05
 Reference value :  1.75061e-05
 Reference value :  1.75071e-05
 Reference value :  1.75086e-05
 Reference value :  1.75099e-05
 Reference value :  1.75119e-05
 Reference value :  1.75141e-05
 Reference value :  1.75160e-05
 Reference value :  1.75180e-05
 Reference value :  1.75199e-05
 Reference value :  1.75222e-05
 Reference value :  1.75248e-05
 Reference value :  1.75275e-05
 Reference value :  1.75325e-05
 Reference value :  1.75406e-05
 Reference value :  1.75505e-05
 Reference value :  1.75701e-05
 Reference value :  1.76095e-05
 Reference value :  1.76780e-05
 Reference value :  1.77501e-05
 Reference value :  1.77501e-05
 Reference value :  1.77501e-05
 Reference value :  1.77502e-05
 Reference value :  1.77502e-05
 Reference value :  1.77502e-05
 Reference value :  1.77502e-05
 Reference value :  1.77502e-05
 Reference value :  1.77502e-05
 Reference value :  1.77502e-05
 Reference value :  1.77502e-05
 Reference value :  1.77503e-05
 Reference value :  1.77504e-05
 Reference value :  1.77506e-05
 Reference value :  1.77510e-05
 Reference value :  1.77514e-05
 Reference value :  1.77519e-05
 Reference value :  1.77525e-05
 Reference value :  1.77533e-05
 Reference value :  1.77542e-05
 Reference value :  1.77554e-05
 Reference value :  1.77565e-05
 Reference value :  1.77575e-05
 Reference value :  1.77585e-05
 Reference value :  1.77597e-05
 Reference value :  1.77610e-05
 Reference value :  1.77623e-05
 Reference value :  1.77638e-05
 Reference value :  1.77660e-05
 Reference value :  1.77683e-05
 Reference value :  1.77723e-05
 Reference value :  1.77791e-05
 Reference value :  1.77889e-05
 Reference value :  1.78069e-05
 Reference value :  1.78348e-05
 Reference value :  1.78904e-05
 Reference value :  1.80000e-05
No. of Data Rows : 2809
ngspice-44 done
