
Note: Compatibility modes selected: hs a


Circuit: ** sch_path: /home/audrey/cace/sar-adc-using-sky130-pdk/runs/run_2025-08-29_20-20-00/parameters/power/run_3/power_consumption.sch

option SCALE: Scale is set to 1e-06 for instance and model parameters
option SCALE: Scale is set to 1e-06 for instance and model parameters
option SCALE: Scale is set to 1e-06 for instance and model parameters
option SCALE: Scale is set to 1e-06 for instance and model parameters
Doing analysis at TEMP = 27.000000 and TNOM = 27.000000

Using KLU as Direct Linear Solver
Operating point simulation skipped by 'uic',
  now using transient initial conditions.
 Reference value :  5.00000e-12
 Reference value :  5.13388e-12
 Reference value :  5.40165e-12
 Reference value :  5.93719e-12
 Reference value :  7.00827e-12
 Reference value :  8.86165e-12
 Reference value :  1.19149e-11
 Reference value :  1.74344e-11
 Reference value :  2.83010e-11
 Reference value :  4.18173e-11
 Reference value :  6.67951e-11
 Reference value :  9.67503e-11
 Reference value :  1.49395e-10
 Reference value :  2.11940e-10
 Reference value :  3.32347e-10
 Reference value :  4.70576e-10
 Reference value :  5.00000e-10
 Reference value :  5.03818e-10
 Reference value :  5.11453e-10
 Reference value :  5.26723e-10
 Reference value :  5.57263e-10
 Reference value :  6.18343e-10
 Reference value :  7.40504e-10
 Reference value :  9.84826e-10
 Reference value :  1.47347e-09
 Reference value :  2.45076e-09
 Reference value :  4.01663e-09
 Reference value :  5.70851e-09
 Reference value :  9.09226e-09
 Reference value :  1.43662e-08
 Reference value :  2.22891e-08
 Reference value :  3.38610e-08
 Reference value :  4.86609e-08
 Reference value :  7.21828e-08
 Reference value :  1.15501e-07
 Reference value :  2.02139e-07
 Reference value :  3.75414e-07
 Reference value :  5.00000e-07
 Reference value :  5.34655e-07
 Reference value :  6.03965e-07
 Reference value :  7.42585e-07
 Reference value :  1.00050e-06
 Reference value :  1.00055e-06
 Reference value :  1.00065e-06
 Reference value :  1.00085e-06
 Reference value :  1.00100e-06
 Reference value :  1.00103e-06
 Reference value :  1.00109e-06
 Reference value :  1.00122e-06
 Reference value :  1.00147e-06
 Reference value :  1.00194e-06
 Reference value :  1.00247e-06
 Reference value :  1.00330e-06
 Reference value :  1.00450e-06
 Reference value :  1.00655e-06
 Reference value :  1.01014e-06
 Reference value :  1.01730e-06
 Reference value :  1.02551e-06
 Reference value :  1.03387e-06
 Reference value :  1.04279e-06
 Reference value :  1.05267e-06
 Reference value :  1.06183e-06
 Reference value :  1.06975e-06
 Reference value :  1.07810e-06
 Reference value :  1.08436e-06
 Reference value :  1.09038e-06
 Reference value :  1.09655e-06
 Reference value :  1.10144e-06
 Reference value :  1.10675e-06
 Reference value :  1.11157e-06
 Reference value :  1.11915e-06
 Reference value :  1.12598e-06
 Reference value :  1.13247e-06
 Reference value :  1.13807e-06
 Reference value :  1.14407e-06
 Reference value :  1.15181e-06
 Reference value :  1.15969e-06
 Reference value :  1.17089e-06
 Reference value :  1.18450e-06
 Reference value :  1.19988e-06
 Reference value :  1.21235e-06
 Reference value :  1.22532e-06
 Reference value :  1.24291e-06
 Reference value :  1.25977e-06
 Reference value :  1.27449e-06
 Reference value :  1.28550e-06
 Reference value :  1.29786e-06
 Reference value :  1.31133e-06
 Reference value :  1.32595e-06
 Reference value :  1.34564e-06
 Reference value :  1.36560e-06
 Reference value :  1.38883e-06
 Reference value :  1.40757e-06
 Reference value :  1.42407e-06
 Reference value :  1.44136e-06
 Reference value :  1.46173e-06
 Reference value :  1.48129e-06
 Reference value :  1.50481e-06
 Reference value :  1.53225e-06
 Reference value :  1.56085e-06
 Reference value :  1.58063e-06
 Reference value :  1.60105e-06
 Reference value :  1.62244e-06
 Reference value :  1.64550e-06
 Reference value :  1.66402e-06
 Reference value :  1.67881e-06
 Reference value :  1.69479e-06
 Reference value :  1.71144e-06
 Reference value :  1.72856e-06
 Reference value :  1.75303e-06
 Reference value :  1.78256e-06
 Reference value :  1.81455e-06
 Reference value :  1.84851e-06
 Reference value :  1.87404e-06
 Reference value :  1.89463e-06
 Reference value :  1.91683e-06
 Reference value :  1.93892e-06
 Reference value :  1.96287e-06
 Reference value :  1.99323e-06
 Reference value :  2.00000e-06
 Reference value :  2.00005e-06
 Reference value :  2.00015e-06
 Reference value :  2.00035e-06
 Reference value :  2.00050e-06
 Reference value :  2.00051e-06
 Reference value :  2.00053e-06
 Reference value :  2.00057e-06
 Reference value :  2.00065e-06
 Reference value :  2.00081e-06
 Reference value :  2.00113e-06
 Reference value :  2.00178e-06
 Reference value :  2.00307e-06
 Reference value :  2.00504e-06
 Reference value :  2.00755e-06
 Reference value :  2.01077e-06
 Reference value :  2.01523e-06
 Reference value :  2.01992e-06
 Reference value :  2.02615e-06
 Reference value :  2.03312e-06
 Reference value :  2.04341e-06
 Reference value :  2.05287e-06
 Reference value :  2.07129e-06
 Reference value :  2.09123e-06
 Reference value :  2.13111e-06
 Reference value :  2.21088e-06
 Reference value :  2.28831e-06
 Reference value :  2.35215e-06
 Reference value :  2.39705e-06
 Reference value :  2.44532e-06
 Reference value :  2.49037e-06
 Reference value :  2.53200e-06
 Reference value :  2.57134e-06
 Reference value :  2.63339e-06
 Reference value :  2.70737e-06
 Reference value :  2.80653e-06
 Reference value :  2.93313e-06
 Reference value :  3.00050e-06
 Reference value :  3.00055e-06
 Reference value :  3.00065e-06
 Reference value :  3.00085e-06
 Reference value :  3.00100e-06
 Reference value :  3.00103e-06
 Reference value :  3.00109e-06
 Reference value :  3.00121e-06
 Reference value :  3.00145e-06
 Reference value :  3.00182e-06
 Reference value :  3.00222e-06
 Reference value :  3.00287e-06
 Reference value :  3.00381e-06
 Reference value :  3.00570e-06
 Reference value :  3.00947e-06
 Reference value :  3.01701e-06
 Reference value :  3.03211e-06
 Reference value :  3.06229e-06
 Reference value :  3.12266e-06
 Reference value :  3.24340e-06
 Reference value :  3.43156e-06
 Reference value :  3.72263e-06
 Reference value :  4.00000e-06
 Reference value :  4.00005e-06
 Reference value :  4.00015e-06
 Reference value :  4.00035e-06
 Reference value :  4.00050e-06
 Reference value :  4.00051e-06
 Reference value :  4.00053e-06
 Reference value :  4.00057e-06
 Reference value :  4.00065e-06
 Reference value :  4.00082e-06
 Reference value :  4.00114e-06
 Reference value :  4.00180e-06
 Reference value :  4.00310e-06
 Reference value :  4.00477e-06
 Reference value :  4.00779e-06
 Reference value :  4.01177e-06
 Reference value :  4.01654e-06
 Reference value :  4.02198e-06
 Reference value :  4.03288e-06
 Reference value :  4.05359e-06
 Reference value :  4.09283e-06
 Reference value :  4.17133e-06
 Reference value :  4.28318e-06
 Reference value :  4.46802e-06
 Reference value :  4.78831e-06
 Reference value :  5.00050e-06
 Reference value :  5.00055e-06
 Reference value :  5.00065e-06
 Reference value :  5.00085e-06
 Reference value :  5.00100e-06
 Reference value :  5.00103e-06
 Reference value :  5.00109e-06
 Reference value :  5.00122e-06
 Reference value :  5.00146e-06
 Reference value :  5.00185e-06
 Reference value :  5.00224e-06
 Reference value :  5.00290e-06
 Reference value :  5.00386e-06
 Reference value :  5.00577e-06
 Reference value :  5.00961e-06
 Reference value :  5.01728e-06
 Reference value :  5.03262e-06
 Reference value :  5.06330e-06
 Reference value :  5.12465e-06
 Reference value :  5.24238e-06
 Reference value :  5.40014e-06
 Reference value :  5.65410e-06
 Reference value :  6.00000e-06
 Reference value :  6.00005e-06
 Reference value :  6.00015e-06
 Reference value :  6.00035e-06
 Reference value :  6.00050e-06
 Reference value :  6.00051e-06
 Reference value :  6.00053e-06
 Reference value :  6.00057e-06
 Reference value :  6.00065e-06
 Reference value :  6.00082e-06
 Reference value :  6.00114e-06
 Reference value :  6.00179e-06
 Reference value :  6.00310e-06
 Reference value :  6.00475e-06
 Reference value :  6.00779e-06
 Reference value :  6.01147e-06
 Reference value :  6.01605e-06
 Reference value :  6.02132e-06
 Reference value :  6.03186e-06
 Reference value :  6.05294e-06
 Reference value :  6.09510e-06
 Reference value :  6.17797e-06
 Reference value :  6.28713e-06
 Reference value :  6.48282e-06
 Reference value :  6.83623e-06
 Reference value :  7.00050e-06
 Reference value :  7.00055e-06
 Reference value :  7.00065e-06
 Reference value :  7.00085e-06
 Reference value :  7.00100e-06
 Reference value :  7.00103e-06
 Reference value :  7.00109e-06
 Reference value :  7.00122e-06
 Reference value :  7.00146e-06
 Reference value :  7.00185e-06
 Reference value :  7.00224e-06
 Reference value :  7.00290e-06
 Reference value :  7.00386e-06
 Reference value :  7.00578e-06
 Reference value :  7.00962e-06
 Reference value :  7.01731e-06
 Reference value :  7.03268e-06
 Reference value :  7.06343e-06
 Reference value :  7.12492e-06
 Reference value :  7.23860e-06
 Reference value :  7.39538e-06
 Reference value :  7.64608e-06
 Reference value :  8.00000e-06
 Reference value :  8.00005e-06
 Reference value :  8.00015e-06
 Reference value :  8.00035e-06
 Reference value :  8.00050e-06
 Reference value :  8.00051e-06
 Reference value :  8.00053e-06
 Reference value :  8.00057e-06
 Reference value :  8.00065e-06
 Reference value :  8.00082e-06
 Reference value :  8.00114e-06
 Reference value :  8.00179e-06
 Reference value :  8.00310e-06
 Reference value :  8.00475e-06
 Reference value :  8.00779e-06
 Reference value :  8.01148e-06
 Reference value :  8.01607e-06
 Reference value :  8.02135e-06
 Reference value :  8.03191e-06
 Reference value :  8.05303e-06
 Reference value :  8.09527e-06
 Reference value :  8.17850e-06
 Reference value :  8.28805e-06
 Reference value :  8.48438e-06
 Reference value :  8.83730e-06
 Reference value :  9.00050e-06
 Reference value :  9.00055e-06
 Reference value :  9.00065e-06
 Reference value :  9.00085e-06
 Reference value :  9.00100e-06
 Reference value :  9.00103e-06
 Reference value :  9.00109e-06
 Reference value :  9.00122e-06
 Reference value :  9.00146e-06
 Reference value :  9.00185e-06
 Reference value :  9.00224e-06
 Reference value :  9.00290e-06
 Reference value :  9.00386e-06
 Reference value :  9.00578e-06
 Reference value :  9.00963e-06
 Reference value :  9.01731e-06
 Reference value :  9.03269e-06
 Reference value :  9.06344e-06
 Reference value :  9.12494e-06
 Reference value :  9.23760e-06
 Reference value :  9.39409e-06
 Reference value :  9.64396e-06
 Reference value :  1.00000e-05
 Reference value :  1.00000e-05
 Reference value :  1.00001e-05
 Reference value :  1.00003e-05
 Reference value :  1.00005e-05
 Reference value :  1.00005e-05
 Reference value :  1.00005e-05
 Reference value :  1.00006e-05
 Reference value :  1.00007e-05
 Reference value :  1.00008e-05
 Reference value :  1.00011e-05
 Reference value :  1.00018e-05
 Reference value :  1.00031e-05
 Reference value :  1.00048e-05
 Reference value :  1.00078e-05
 Reference value :  1.00115e-05
 Reference value :  1.00161e-05
 Reference value :  1.00214e-05
 Reference value :  1.00319e-05
 Reference value :  1.00531e-05
 Reference value :  1.00953e-05
 Reference value :  1.01787e-05
 Reference value :  1.02883e-05
 Reference value :  1.04849e-05
 Reference value :  1.08376e-05
 Reference value :  1.10005e-05
 Reference value :  1.10005e-05
 Reference value :  1.10006e-05
 Reference value :  1.10008e-05
 Reference value :  1.10010e-05
 Reference value :  1.10010e-05
 Reference value :  1.10011e-05
 Reference value :  1.10012e-05
 Reference value :  1.10015e-05
 Reference value :  1.10018e-05
 Reference value :  1.10022e-05
 Reference value :  1.10029e-05
 Reference value :  1.10039e-05
 Reference value :  1.10058e-05
 Reference value :  1.10096e-05
 Reference value :  1.10173e-05
 Reference value :  1.10327e-05
 Reference value :  1.10634e-05
 Reference value :  1.11249e-05
 Reference value :  1.12373e-05
 Reference value :  1.13938e-05
 Reference value :  1.16434e-05
 Reference value :  1.20000e-05
 Reference value :  1.20000e-05
 Reference value :  1.20001e-05
 Reference value :  1.20003e-05
 Reference value :  1.20005e-05
 Reference value :  1.20005e-05
 Reference value :  1.20005e-05
 Reference value :  1.20006e-05
 Reference value :  1.20007e-05
 Reference value :  1.20008e-05
 Reference value :  1.20011e-05
 Reference value :  1.20018e-05
 Reference value :  1.20031e-05
 Reference value :  1.20048e-05
 Reference value :  1.20078e-05
 Reference value :  1.20115e-05
 Reference value :  1.20161e-05
 Reference value :  1.20214e-05
 Reference value :  1.20319e-05
 Reference value :  1.20531e-05
 Reference value :  1.20953e-05
 Reference value :  1.21787e-05
 Reference value :  1.22884e-05
 Reference value :  1.24850e-05
 Reference value :  1.28376e-05
 Reference value :  1.30005e-05
 Reference value :  1.30006e-05
 Reference value :  1.30007e-05
 Reference value :  1.30009e-05
 Reference value :  1.30010e-05
 Reference value :  1.30010e-05
 Reference value :  1.30011e-05
 Reference value :  1.30012e-05
 Reference value :  1.30015e-05
 Reference value :  1.30018e-05
 Reference value :  1.30022e-05
 Reference value :  1.30029e-05
 Reference value :  1.30039e-05
 Reference value :  1.30058e-05
 Reference value :  1.30096e-05
 Reference value :  1.30173e-05
 Reference value :  1.30327e-05
 Reference value :  1.30634e-05
 Reference value :  1.31249e-05
 Reference value :  1.32373e-05
 Reference value :  1.33937e-05
 Reference value :  1.36433e-05
 Reference value :  1.40000e-05
 Reference value :  1.40000e-05
 Reference value :  1.40002e-05
 Reference value :  1.40004e-05
 Reference value :  1.40005e-05
 Reference value :  1.40005e-05
 Reference value :  1.40005e-05
 Reference value :  1.40006e-05
 Reference value :  1.40007e-05
 Reference value :  1.40008e-05
 Reference value :  1.40011e-05
 Reference value :  1.40018e-05
 Reference value :  1.40031e-05
 Reference value :  1.40048e-05
 Reference value :  1.40078e-05
 Reference value :  1.40115e-05
 Reference value :  1.40161e-05
 Reference value :  1.40214e-05
 Reference value :  1.40319e-05
 Reference value :  1.40531e-05
 Reference value :  1.40953e-05
 Reference value :  1.41787e-05
 Reference value :  1.42884e-05
 Reference value :  1.44850e-05
 Reference value :  1.48377e-05
 Reference value :  1.50005e-05
 Reference value :  1.50005e-05
 Reference value :  1.50007e-05
 Reference value :  1.50009e-05
 Reference value :  1.50010e-05
 Reference value :  1.50010e-05
 Reference value :  1.50011e-05
 Reference value :  1.50012e-05
 Reference value :  1.50015e-05
 Reference value :  1.50018e-05
 Reference value :  1.50022e-05
 Reference value :  1.50029e-05
 Reference value :  1.50039e-05
 Reference value :  1.50058e-05
 Reference value :  1.50096e-05
 Reference value :  1.50173e-05
 Reference value :  1.50327e-05
 Reference value :  1.50634e-05
 Reference value :  1.51250e-05
 Reference value :  1.52372e-05
 Reference value :  1.53936e-05
 Reference value :  1.56432e-05
 Reference value :  1.60000e-05
 Reference value :  1.60000e-05
 Reference value :  1.60001e-05
 Reference value :  1.60004e-05
 Reference value :  1.60005e-05
 Reference value :  1.60005e-05
 Reference value :  1.60005e-05
 Reference value :  1.60006e-05
 Reference value :  1.60007e-05
 Reference value :  1.60008e-05
 Reference value :  1.60011e-05
 Reference value :  1.60018e-05
 Reference value :  1.60031e-05
 Reference value :  1.60048e-05
 Reference value :  1.60078e-05
 Reference value :  1.60115e-05
 Reference value :  1.60161e-05
 Reference value :  1.60214e-05
 Reference value :  1.60319e-05
 Reference value :  1.60531e-05
 Reference value :  1.60953e-05
 Reference value :  1.61787e-05
 Reference value :  1.62884e-05
 Reference value :  1.64850e-05
 Reference value :  1.68377e-05
 Reference value :  1.70005e-05
 Reference value :  1.70006e-05
 Reference value :  1.70007e-05
 Reference value :  1.70009e-05
 Reference value :  1.70010e-05
 Reference value :  1.70010e-05
 Reference value :  1.70011e-05
 Reference value :  1.70012e-05
 Reference value :  1.70015e-05
 Reference value :  1.70018e-05
 Reference value :  1.70022e-05
 Reference value :  1.70029e-05
 Reference value :  1.70039e-05
 Reference value :  1.70058e-05
 Reference value :  1.70096e-05
 Reference value :  1.70173e-05
 Reference value :  1.70327e-05
 Reference value :  1.70634e-05
 Reference value :  1.71250e-05
 Reference value :  1.72372e-05
 Reference value :  1.73936e-05
 Reference value :  1.76432e-05
 Reference value :  1.80000e-05
 Reference value :  1.80001e-05
 Reference value :  1.80002e-05
 Reference value :  1.80004e-05
 Reference value :  1.80005e-05
 Reference value :  1.80005e-05
 Reference value :  1.80005e-05
 Reference value :  1.80006e-05
 Reference value :  1.80007e-05
 Reference value :  1.80008e-05
 Reference value :  1.80011e-05
 Reference value :  1.80018e-05
 Reference value :  1.80031e-05
 Reference value :  1.80048e-05
 Reference value :  1.80078e-05
 Reference value :  1.80115e-05
 Reference value :  1.80161e-05
 Reference value :  1.80214e-05
 Reference value :  1.80319e-05
 Reference value :  1.80531e-05
 Reference value :  1.80953e-05
 Reference value :  1.81787e-05
 Reference value :  1.82884e-05
 Reference value :  1.84850e-05
 Reference value :  1.88377e-05
 Reference value :  1.90005e-05
 Reference value :  1.90006e-05
 Reference value :  1.90007e-05
 Reference value :  1.90009e-05
 Reference value :  1.90010e-05
 Reference value :  1.90010e-05
 Reference value :  1.90011e-05
 Reference value :  1.90012e-05
 Reference value :  1.90015e-05
 Reference value :  1.90018e-05
 Reference value :  1.90022e-05
 Reference value :  1.90029e-05
 Reference value :  1.90039e-05
 Reference value :  1.90058e-05
 Reference value :  1.90096e-05
 Reference value :  1.90173e-05
 Reference value :  1.90327e-05
 Reference value :  1.90634e-05
 Reference value :  1.91250e-05
 Reference value :  1.92372e-05
 Reference value :  1.93936e-05
 Reference value :  1.96432e-05
 Reference value :  2.00000e-05
 Reference value :  2.00001e-05
 Reference value :  2.00002e-05
 Reference value :  2.00004e-05
 Reference value :  2.00005e-05
 Reference value :  2.00005e-05
 Reference value :  2.00005e-05
 Reference value :  2.00006e-05
 Reference value :  2.00007e-05
 Reference value :  2.00008e-05
 Reference value :  2.00011e-05
 Reference value :  2.00018e-05
 Reference value :  2.00031e-05
 Reference value :  2.00048e-05
 Reference value :  2.00078e-05
 Reference value :  2.00115e-05
 Reference value :  2.00161e-05
 Reference value :  2.00214e-05
 Reference value :  2.00319e-05
 Reference value :  2.00531e-05
 Reference value :  2.00953e-05
 Reference value :  2.01787e-05
 Reference value :  2.02884e-05
 Reference value :  2.04850e-05
 Reference value :  2.08376e-05
 Reference value :  2.10005e-05
 Reference value :  2.10005e-05
 Reference value :  2.10006e-05
 Reference value :  2.10008e-05
 Reference value :  2.10010e-05
 Reference value :  2.10010e-05
 Reference value :  2.10011e-05
 Reference value :  2.10012e-05
 Reference value :  2.10015e-05
 Reference value :  2.10018e-05
 Reference value :  2.10022e-05
 Reference value :  2.10029e-05
 Reference value :  2.10039e-05
 Reference value :  2.10058e-05
 Reference value :  2.10096e-05
 Reference value :  2.10173e-05
 Reference value :  2.10327e-05
 Reference value :  2.10634e-05
 Reference value :  2.11250e-05
 Reference value :  2.12372e-05
 Reference value :  2.13936e-05
 Reference value :  2.16432e-05
 Reference value :  2.20000e-05
 Reference value :  2.20000e-05
 Reference value :  2.20001e-05
 Reference value :  2.20004e-05
 Reference value :  2.20005e-05
 Reference value :  2.20005e-05
 Reference value :  2.20005e-05
 Reference value :  2.20006e-05
 Reference value :  2.20007e-05
 Reference value :  2.20008e-05
 Reference value :  2.20011e-05
 Reference value :  2.20018e-05
 Reference value :  2.20031e-05
 Reference value :  2.20048e-05
 Reference value :  2.20078e-05
 Reference value :  2.20115e-05
 Reference value :  2.20161e-05
 Reference value :  2.20214e-05
 Reference value :  2.20319e-05
 Reference value :  2.20531e-05
 Reference value :  2.20953e-05
 Reference value :  2.21787e-05
 Reference value :  2.22884e-05
 Reference value :  2.24850e-05
 Reference value :  2.28376e-05
 Reference value :  2.30005e-05
 Reference value :  2.30005e-05
 Reference value :  2.30006e-05
 Reference value :  2.30008e-05
 Reference value :  2.30010e-05
 Reference value :  2.30010e-05
 Reference value :  2.30011e-05
 Reference value :  2.30012e-05
 Reference value :  2.30015e-05
 Reference value :  2.30018e-05
 Reference value :  2.30022e-05
 Reference value :  2.30029e-05
 Reference value :  2.30039e-05
 Reference value :  2.30058e-05
 Reference value :  2.30096e-05
 Reference value :  2.30173e-05
 Reference value :  2.30327e-05
 Reference value :  2.30634e-05
 Reference value :  2.31250e-05
 Reference value :  2.32372e-05
 Reference value :  2.33936e-05
 Reference value :  2.36432e-05
 Reference value :  2.40000e-05
 Reference value :  2.40001e-05
 Reference value :  2.40002e-05
 Reference value :  2.40004e-05
 Reference value :  2.40005e-05
 Reference value :  2.40005e-05
 Reference value :  2.40005e-05
 Reference value :  2.40006e-05
 Reference value :  2.40007e-05
 Reference value :  2.40008e-05
 Reference value :  2.40011e-05
 Reference value :  2.40018e-05
 Reference value :  2.40031e-05
 Reference value :  2.40048e-05
 Reference value :  2.40078e-05
 Reference value :  2.40115e-05
 Reference value :  2.40161e-05
 Reference value :  2.40214e-05
 Reference value :  2.40319e-05
 Reference value :  2.40531e-05
 Reference value :  2.40953e-05
 Reference value :  2.41787e-05
 Reference value :  2.42884e-05
 Reference value :  2.44850e-05
 Reference value :  2.48376e-05
 Reference value :  2.50005e-05
 Reference value :  2.50005e-05
 Reference value :  2.50006e-05
 Reference value :  2.50008e-05
 Reference value :  2.50010e-05
 Reference value :  2.50010e-05
 Reference value :  2.50011e-05
 Reference value :  2.50012e-05
 Reference value :  2.50015e-05
 Reference value :  2.50018e-05
 Reference value :  2.50022e-05
 Reference value :  2.50029e-05
 Reference value :  2.50039e-05
 Reference value :  2.50058e-05
 Reference value :  2.50096e-05
 Reference value :  2.50173e-05
 Reference value :  2.50327e-05
 Reference value :  2.50634e-05
 Reference value :  2.51250e-05
 Reference value :  2.52372e-05
 Reference value :  2.53936e-05
 Reference value :  2.56432e-05
 Reference value :  2.60000e-05
 Reference value :  2.60001e-05
 Reference value :  2.60002e-05
 Reference value :  2.60004e-05
 Reference value :  2.60005e-05
 Reference value :  2.60005e-05
 Reference value :  2.60005e-05
 Reference value :  2.60006e-05
 Reference value :  2.60007e-05
 Reference value :  2.60008e-05
 Reference value :  2.60011e-05
 Reference value :  2.60018e-05
 Reference value :  2.60031e-05
 Reference value :  2.60048e-05
 Reference value :  2.60078e-05
 Reference value :  2.60115e-05
 Reference value :  2.60161e-05
 Reference value :  2.60214e-05
 Reference value :  2.60319e-05
 Reference value :  2.60531e-05
 Reference value :  2.60953e-05
 Reference value :  2.61787e-05
 Reference value :  2.62884e-05
 Reference value :  2.64850e-05
 Reference value :  2.68376e-05
 Reference value :  2.70005e-05
 Reference value :  2.70006e-05
 Reference value :  2.70007e-05
 Reference value :  2.70009e-05
 Reference value :  2.70010e-05
 Reference value :  2.70010e-05
 Reference value :  2.70011e-05
 Reference value :  2.70012e-05
 Reference value :  2.70015e-05
 Reference value :  2.70018e-05
 Reference value :  2.70022e-05
 Reference value :  2.70029e-05
 Reference value :  2.70039e-05
 Reference value :  2.70058e-05
 Reference value :  2.70096e-05
 Reference value :  2.70173e-05
 Reference value :  2.70327e-05
 Reference value :  2.70634e-05
 Reference value :  2.71250e-05
 Reference value :  2.72372e-05
 Reference value :  2.73936e-05
 Reference value :  2.76432e-05
 Reference value :  2.80000e-05
 Reference value :  2.80000e-05
 Reference value :  2.80001e-05
 Reference value :  2.80004e-05
 Reference value :  2.80005e-05
 Reference value :  2.80005e-05
 Reference value :  2.80005e-05
 Reference value :  2.80006e-05
 Reference value :  2.80007e-05
 Reference value :  2.80008e-05
 Reference value :  2.80011e-05
 Reference value :  2.80018e-05
 Reference value :  2.80031e-05
 Reference value :  2.80048e-05
 Reference value :  2.80078e-05
 Reference value :  2.80115e-05
 Reference value :  2.80161e-05
 Reference value :  2.80214e-05
 Reference value :  2.80319e-05
 Reference value :  2.80531e-05
 Reference value :  2.80953e-05
 Reference value :  2.81787e-05
 Reference value :  2.82884e-05
 Reference value :  2.84850e-05
 Reference value :  2.88376e-05
 Reference value :  2.90005e-05
 Reference value :  2.90006e-05
 Reference value :  2.90007e-05
 Reference value :  2.90009e-05
 Reference value :  2.90010e-05
 Reference value :  2.90010e-05
 Reference value :  2.90011e-05
 Reference value :  2.90012e-05
 Reference value :  2.90015e-05
 Reference value :  2.90018e-05
 Reference value :  2.90022e-05
 Reference value :  2.90029e-05
 Reference value :  2.90039e-05
 Reference value :  2.90058e-05
 Reference value :  2.90096e-05
 Reference value :  2.90173e-05
 Reference value :  2.90327e-05
 Reference value :  2.90634e-05
 Reference value :  2.91250e-05
 Reference value :  2.92372e-05
 Reference value :  2.93936e-05
 Reference value :  2.96432e-05
 Reference value :  3.00000e-05
 Reference value :  3.00001e-05
 Reference value :  3.00002e-05
 Reference value :  3.00004e-05
 Reference value :  3.00005e-05
 Reference value :  3.00005e-05
 Reference value :  3.00005e-05
 Reference value :  3.00006e-05
 Reference value :  3.00007e-05
 Reference value :  3.00008e-05
 Reference value :  3.00011e-05
 Reference value :  3.00018e-05
 Reference value :  3.00031e-05
 Reference value :  3.00048e-05
 Reference value :  3.00078e-05
 Reference value :  3.00115e-05
 Reference value :  3.00161e-05
 Reference value :  3.00214e-05
 Reference value :  3.00319e-05
 Reference value :  3.00531e-05
 Reference value :  3.00953e-05
 Reference value :  3.01787e-05
 Reference value :  3.02884e-05
 Reference value :  3.04850e-05
 Reference value :  3.08376e-05
 Reference value :  3.10005e-05
 Reference value :  3.10005e-05
 Reference value :  3.10006e-05
 Reference value :  3.10008e-05
 Reference value :  3.10010e-05
 Reference value :  3.10010e-05
 Reference value :  3.10011e-05
 Reference value :  3.10012e-05
 Reference value :  3.10015e-05
 Reference value :  3.10018e-05
 Reference value :  3.10022e-05
 Reference value :  3.10029e-05
 Reference value :  3.10039e-05
 Reference value :  3.10058e-05
 Reference value :  3.10096e-05
 Reference value :  3.10173e-05
 Reference value :  3.10327e-05
 Reference value :  3.10634e-05
 Reference value :  3.11250e-05
 Reference value :  3.12372e-05
 Reference value :  3.13935e-05
 Reference value :  3.16432e-05
 Reference value :  3.20000e-05
 Reference value :  3.20000e-05
 Reference value :  3.20001e-05
 Reference value :  3.20003e-05
 Reference value :  3.20005e-05
 Reference value :  3.20005e-05
 Reference value :  3.20005e-05
 Reference value :  3.20006e-05
 Reference value :  3.20007e-05
 Reference value :  3.20008e-05
 Reference value :  3.20011e-05
 Reference value :  3.20018e-05
 Reference value :  3.20031e-05
 Reference value :  3.20048e-05
 Reference value :  3.20078e-05
 Reference value :  3.20115e-05
 Reference value :  3.20161e-05
 Reference value :  3.20214e-05
 Reference value :  3.20319e-05
 Reference value :  3.20531e-05
 Reference value :  3.20953e-05
 Reference value :  3.21787e-05
 Reference value :  3.22884e-05
 Reference value :  3.24850e-05
 Reference value :  3.28376e-05
 Reference value :  3.30005e-05
 Reference value :  3.30006e-05
 Reference value :  3.30007e-05
 Reference value :  3.30009e-05
 Reference value :  3.30010e-05
 Reference value :  3.30010e-05
 Reference value :  3.30011e-05
 Reference value :  3.30012e-05
 Reference value :  3.30015e-05
 Reference value :  3.30018e-05
 Reference value :  3.30022e-05
 Reference value :  3.30029e-05
 Reference value :  3.30039e-05
 Reference value :  3.30058e-05
 Reference value :  3.30096e-05
 Reference value :  3.30173e-05
 Reference value :  3.30327e-05
 Reference value :  3.30635e-05
 Reference value :  3.31250e-05
 Reference value :  3.32372e-05
 Reference value :  3.33935e-05
 Reference value :  3.36432e-05
 Reference value :  3.40000e-05
No. of Data Rows : 884
ngspice-44 done
