
Note: Compatibility modes selected: hs a


Circuit: ** sch_path: /home/ece/cace/sar-adc-using-sky130-pdk/runs/run_2025-09-12_21-23-58/parameters/dnl/run_2/sar_output_dnl.sch

option SCALE: Scale is set to 1e-06 for instance and model parameters
option SCALE: Scale is set to 1e-06 for instance and model parameters
option SCALE: Scale is set to 1e-06 for instance and model parameters
option SCALE: Scale is set to 1e-06 for instance and model parameters
Doing analysis at TEMP = 27.000000 and TNOM = 27.000000

Using KLU as Direct Linear Solver
Operating point simulation skipped by 'uic',
  now using transient initial conditions.
 Reference value :  1.00000e-12
 Reference value :  1.07953e-12
 Reference value :  1.64739e-12
 Reference value :  4.21387e-12
 Reference value :  1.33911e-11
 Reference value :  5.73688e-11
 Reference value :  1.15078e-10
 Reference value :  2.55807e-10
 Reference value :  6.75975e-10
 Reference value :  1.35157e-09
 Reference value :  2.50742e-09
 Reference value :  4.08291e-09
 Reference value :  6.09296e-09
 Reference value :  7.40551e-09
 Reference value :  8.82751e-09
 Reference value :  9.64374e-09
 Reference value :  1.09980e-08
 Reference value :  1.25131e-08
 Reference value :  2.02718e-08
 Reference value :  2.45019e-08
 Reference value :  3.62162e-08
 Reference value :  5.85783e-08
 Reference value :  1.92380e-07
 Reference value :  2.50130e-07
 Reference value :  2.50208e-07
 Reference value :  2.50312e-07
 Reference value :  2.50680e-07
 Reference value :  2.51695e-07
 Reference value :  2.53257e-07
 Reference value :  2.54260e-07
 Reference value :  2.55484e-07
 Reference value :  2.57475e-07
 Reference value :  2.69677e-07
 Reference value :  4.03152e-07
 Reference value :  5.00030e-07
 Reference value :  5.00124e-07
 Reference value :  5.00338e-07
 Reference value :  5.01187e-07
 Reference value :  5.02011e-07
 Reference value :  5.03446e-07
 Reference value :  5.06612e-07
 Reference value :  5.10138e-07
 Reference value :  5.14501e-07
 Reference value :  5.55019e-07
 Reference value :  7.50170e-07
 Reference value :  7.50448e-07
 Reference value :  7.51397e-07
 Reference value :  7.52994e-07
 Reference value :  7.54490e-07
 Reference value :  7.58107e-07
 Reference value :  8.53128e-07
 Reference value :  1.00007e-06
 Reference value :  1.00022e-06
 Reference value :  1.00083e-06
 Reference value :  1.00201e-06
 Reference value :  1.00396e-06
 Reference value :  1.00632e-06
 Reference value :  1.01119e-06
 Reference value :  1.01429e-06
 Reference value :  1.01739e-06
 Reference value :  1.04994e-06
 Reference value :  1.25011e-06
 Reference value :  1.25022e-06
 Reference value :  1.25069e-06
 Reference value :  1.25140e-06
 Reference value :  1.25300e-06
 Reference value :  1.25399e-06
 Reference value :  1.25609e-06
 Reference value :  1.26195e-06
 Reference value :  1.28970e-06
 Reference value :  1.50001e-06
 Reference value :  1.50010e-06
 Reference value :  1.50016e-06
 Reference value :  1.50052e-06
 Reference value :  1.50119e-06
 Reference value :  1.50201e-06
 Reference value :  1.50289e-06
 Reference value :  1.50399e-06
 Reference value :  1.50616e-06
 Reference value :  1.50771e-06
 Reference value :  1.51086e-06
 Reference value :  1.52991e-06
 Reference value :  1.75010e-06
 Reference value :  1.75020e-06
 Reference value :  1.75032e-06
 Reference value :  1.75098e-06
 Reference value :  1.75186e-06
 Reference value :  1.75299e-06
 Reference value :  1.75397e-06
 Reference value :  1.75503e-06
 Reference value :  1.75662e-06
 Reference value :  1.77002e-06
 Reference value :  1.96047e-06
 Reference value :  2.00003e-06
 Reference value :  2.00010e-06
 Reference value :  2.00016e-06
 Reference value :  2.00052e-06
 Reference value :  2.00158e-06
 Reference value :  2.00289e-06
 Reference value :  2.00450e-06
 Reference value :  2.00554e-06
 Reference value :  2.00846e-06
 Reference value :  2.01120e-06
 Reference value :  2.01323e-06
 Reference value :  2.01525e-06
 Reference value :  2.01914e-06
 Reference value :  2.02883e-06
 Reference value :  2.03889e-06
 Reference value :  2.04931e-06
 Reference value :  2.06437e-06
 Reference value :  2.11059e-06
 Reference value :  2.25013e-06
 Reference value :  2.25026e-06
 Reference value :  2.25098e-06
 Reference value :  2.25230e-06
 Reference value :  2.25344e-06
 Reference value :  2.25595e-06
 Reference value :  2.28573e-06
 Reference value :  2.50003e-06
 Reference value :  2.50012e-06
 Reference value :  2.50034e-06
 Reference value :  2.50119e-06
 Reference value :  2.50195e-06
 Reference value :  2.50282e-06
 Reference value :  2.50464e-06
 Reference value :  2.50598e-06
 Reference value :  2.50749e-06
 Reference value :  2.51029e-06
 Reference value :  2.52245e-06
 Reference value :  2.64785e-06
 Reference value :  2.75017e-06
 Reference value :  2.75022e-06
 Reference value :  2.75045e-06
 Reference value :  2.75098e-06
 Reference value :  2.75186e-06
 Reference value :  2.75299e-06
 Reference value :  2.75397e-06
 Reference value :  2.75502e-06
 Reference value :  2.75752e-06
 Reference value :  2.75965e-06
 Reference value :  2.77503e-06
 Reference value :  3.00000e-06
 Reference value :  3.00007e-06
 Reference value :  3.00012e-06
 Reference value :  3.00034e-06
 Reference value :  3.00119e-06
 Reference value :  3.00201e-06
 Reference value :  3.00290e-06
 Reference value :  3.00390e-06
 Reference value :  3.00484e-06
 Reference value :  3.00664e-06
 Reference value :  3.00841e-06
 Reference value :  3.01016e-06
 Reference value :  3.01192e-06
 Reference value :  3.01358e-06
 Reference value :  3.01637e-06
 Reference value :  3.01916e-06
 Reference value :  3.02832e-06
 Reference value :  3.05833e-06
 Reference value :  3.06564e-06
 Reference value :  3.07178e-06
 Reference value :  3.08029e-06
 Reference value :  3.09018e-06
 Reference value :  3.12087e-06
 Reference value :  3.19241e-06
 Reference value :  3.25011e-06
 Reference value :  3.25020e-06
 Reference value :  3.25026e-06
 Reference value :  3.25069e-06
 Reference value :  3.25140e-06
 Reference value :  3.25229e-06
 Reference value :  3.25345e-06
 Reference value :  3.25461e-06
 Reference value :  3.25742e-06
 Reference value :  3.26524e-06
 Reference value :  3.37332e-06
 Reference value :  3.50003e-06
 Reference value :  3.50011e-06
 Reference value :  3.50022e-06
 Reference value :  3.50052e-06
 Reference value :  3.50158e-06
 Reference value :  3.50290e-06
 Reference value :  3.50474e-06
 Reference value :  3.50616e-06
 Reference value :  3.50771e-06
 Reference value :  3.51086e-06
 Reference value :  3.52996e-06
 Reference value :  3.65759e-06
 Reference value :  3.75013e-06
 Reference value :  3.75021e-06
 Reference value :  3.75045e-06
 Reference value :  3.75098e-06
 Reference value :  3.75186e-06
 Reference value :  3.75299e-06
 Reference value :  3.75397e-06
 Reference value :  3.75502e-06
 Reference value :  3.75660e-06
 Reference value :  3.76984e-06
 Reference value :  3.95705e-06
 Reference value :  4.00007e-06
 Reference value :  4.00016e-06
 Reference value :  4.00083e-06
 Reference value :  4.00201e-06
 Reference value :  4.00289e-06
 Reference value :  4.00450e-06
 Reference value :  4.00632e-06
 Reference value :  4.00997e-06
 Reference value :  4.01223e-06
 Reference value :  4.01524e-06
 Reference value :  4.02075e-06
 Reference value :  4.03077e-06
 Reference value :  4.03410e-06
 Reference value :  4.03709e-06
 Reference value :  4.04723e-06
 Reference value :  4.06646e-06
 Reference value :  4.11947e-06
 Reference value :  4.25013e-06
 Reference value :  4.25022e-06
 Reference value :  4.25098e-06
 Reference value :  4.25229e-06
 Reference value :  4.25343e-06
 Reference value :  4.25526e-06
 Reference value :  4.26494e-06
 Reference value :  4.47974e-06
 Reference value :  4.50007e-06
 Reference value :  4.50012e-06
 Reference value :  4.50034e-06
 Reference value :  4.50083e-06
 Reference value :  4.50154e-06
 Reference value :  4.50235e-06
 Reference value :  4.50333e-06
 Reference value :  4.50464e-06
 Reference value :  4.50598e-06
 Reference value :  4.50749e-06
 Reference value :  4.51028e-06
 Reference value :  4.52228e-06
 Reference value :  4.64496e-06
 Reference value :  4.75013e-06
 Reference value :  4.75021e-06
 Reference value :  4.75032e-06
 Reference value :  4.75069e-06
 Reference value :  4.75140e-06
 Reference value :  4.75299e-06
 Reference value :  4.75397e-06
 Reference value :  4.75502e-06
 Reference value :  4.75661e-06
 Reference value :  4.75964e-06
 Reference value :  4.77489e-06
 Reference value :  4.99974e-06
 Reference value :  5.00003e-06
 Reference value :  5.00011e-06
 Reference value :  5.00034e-06
 Reference value :  5.00158e-06
 Reference value :  5.00290e-06
 Reference value :  5.00390e-06
 Reference value :  5.00534e-06
 Reference value :  5.00758e-06
 Reference value :  5.01015e-06
 Reference value :  5.01190e-06
 Reference value :  5.01444e-06
 Reference value :  5.01630e-06
 Reference value :  5.02409e-06
 Reference value :  5.03136e-06
 Reference value :  5.04034e-06
 Reference value :  5.04749e-06
 Reference value :  5.06895e-06
 Reference value :  5.13079e-06
 Reference value :  5.15096e-06
 Reference value :  5.16449e-06
 Reference value :  5.19203e-06
 Reference value :  5.23225e-06
 Reference value :  5.25013e-06
 Reference value :  5.25021e-06
 Reference value :  5.25045e-06
 Reference value :  5.25140e-06
 Reference value :  5.25299e-06
 Reference value :  5.25395e-06
 Reference value :  5.25596e-06
 Reference value :  5.26151e-06
 Reference value :  5.31394e-06
 Reference value :  5.50001e-06
 Reference value :  5.50010e-06
 Reference value :  5.50022e-06
 Reference value :  5.50083e-06
 Reference value :  5.50154e-06
 Reference value :  5.50235e-06
 Reference value :  5.50282e-06
 Reference value :  5.50464e-06
 Reference value :  5.50598e-06
 Reference value :  5.50749e-06
 Reference value :  5.51028e-06
 Reference value :  5.53172e-06
 Reference value :  5.75010e-06
 Reference value :  5.75020e-06
 Reference value :  5.75032e-06
 Reference value :  5.75098e-06
 Reference value :  5.75186e-06
 Reference value :  5.75344e-06
 Reference value :  5.75448e-06
 Reference value :  5.75579e-06
 Reference value :  5.75834e-06
 Reference value :  5.76362e-06
 Reference value :  5.81902e-06
 Reference value :  6.00001e-06
 Reference value :  6.00010e-06
 Reference value :  6.00016e-06
 Reference value :  6.00052e-06
 Reference value :  6.00158e-06
 Reference value :  6.00242e-06
 Reference value :  6.00342e-06
 Reference value :  6.00390e-06
 Reference value :  6.00534e-06
 Reference value :  6.00850e-06
 Reference value :  6.01016e-06
 Reference value :  6.01263e-06
 Reference value :  6.01523e-06
 Reference value :  6.02280e-06
 Reference value :  6.03252e-06
 Reference value :  6.07175e-06
 Reference value :  6.25011e-06
 Reference value :  6.25022e-06
 Reference value :  6.25098e-06
 Reference value :  6.25299e-06
 Reference value :  6.25460e-06
 Reference value :  6.26517e-06
 Reference value :  6.50001e-06
 Reference value :  6.50010e-06
 Reference value :  6.50022e-06
 Reference value :  6.50083e-06
 Reference value :  6.50158e-06
 Reference value :  6.50290e-06
 Reference value :  6.50474e-06
 Reference value :  6.50616e-06
 Reference value :  6.50771e-06
 Reference value :  6.51087e-06
 Reference value :  6.52046e-06
 Reference value :  6.65155e-06
 Reference value :  6.75013e-06
 Reference value :  6.75021e-06
 Reference value :  6.75032e-06
 Reference value :  6.75098e-06
 Reference value :  6.75186e-06
 Reference value :  6.75299e-06
 Reference value :  6.75397e-06
 Reference value :  6.75579e-06
 Reference value :  6.76358e-06
 Reference value :  6.85685e-06
 Reference value :  7.00001e-06
 Reference value :  7.00010e-06
 Reference value :  7.00016e-06
 Reference value :  7.00052e-06
 Reference value :  7.00119e-06
 Reference value :  7.00201e-06
 Reference value :  7.00289e-06
 Reference value :  7.00396e-06
 Reference value :  7.00500e-06
 Reference value :  7.00709e-06
 Reference value :  7.00997e-06
 Reference value :  7.01120e-06
 Reference value :  7.01223e-06
 Reference value :  7.01428e-06
 Reference value :  7.01737e-06
 Reference value :  7.02597e-06
 Reference value :  7.02934e-06
 Reference value :  7.03680e-06
 Reference value :  7.05063e-06
 Reference value :  7.08131e-06
 Reference value :  7.25010e-06
 Reference value :  7.25020e-06
 Reference value :  7.25032e-06
 Reference value :  7.25098e-06
 Reference value :  7.25186e-06
 Reference value :  7.25343e-06
 Reference value :  7.25595e-06
 Reference value :  7.27187e-06
 Reference value :  7.50000e-06
 Reference value :  7.50010e-06
 Reference value :  7.50022e-06
 Reference value :  7.50119e-06
 Reference value :  7.50235e-06
 Reference value :  7.50333e-06
 Reference value :  7.50536e-06
 Reference value :  7.50664e-06
 Reference value :  7.50749e-06
 Reference value :  7.50924e-06
 Reference value :  7.51028e-06
 Reference value :  7.51667e-06
 Reference value :  7.57924e-06
 Reference value :  7.75013e-06
 Reference value :  7.75020e-06
 Reference value :  7.75022e-06
 Reference value :  7.75045e-06
 Reference value :  7.75098e-06
 Reference value :  7.75186e-06
 Reference value :  7.75298e-06
 Reference value :  7.75396e-06
 Reference value :  7.75501e-06
 Reference value :  7.75660e-06
 Reference value :  7.75835e-06
 Reference value :  7.76363e-06
 Reference value :  7.81917e-06
 Reference value :  8.00001e-06
 Reference value :  8.00011e-06
 Reference value :  8.00034e-06
 Reference value :  8.00119e-06
 Reference value :  8.00242e-06
 Reference value :  8.00342e-06
 Reference value :  8.00440e-06
 Reference value :  8.00534e-06
 Reference value :  8.00743e-06
 Reference value :  8.00993e-06
 Reference value :  8.01755e-06
 Reference value :  8.03213e-06
 Reference value :  8.03846e-06
 Reference value :  8.04306e-06
 Reference value :  8.05888e-06
 Reference value :  8.11536e-06
 Reference value :  8.25011e-06
 Reference value :  8.25020e-06
 Reference value :  8.25026e-06
 Reference value :  8.25070e-06
 Reference value :  8.25139e-06
 Reference value :  8.25298e-06
 Reference value :  8.25535e-06
 Reference value :  8.26192e-06
 Reference value :  8.50000e-06
 Reference value :  8.50000e-06
 Reference value :  8.50001e-06
 Reference value :  8.50008e-06
 Reference value :  8.50012e-06
 Reference value :  8.50044e-06
 Reference value :  8.50158e-06
 Reference value :  8.50243e-06
 Reference value :  8.50348e-06
 Reference value :  8.50446e-06
 Reference value :  8.50554e-06
 Reference value :  8.51197e-06
 Reference value :  8.52239e-06
 Reference value :  8.52625e-06
 Reference value :  8.52913e-06
 Reference value :  8.53172e-06
 Reference value :  8.53577e-06
 Reference value :  8.54260e-06
 Reference value :  8.56097e-06
 Reference value :  8.62701e-06
 Reference value :  8.75011e-06
 Reference value :  8.75021e-06
 Reference value :  8.75032e-06
 Reference value :  8.75098e-06
 Reference value :  8.75185e-06
 Reference value :  8.75343e-06
 Reference value :  8.75515e-06
 Reference value :  8.75868e-06
 Reference value :  8.78463e-06
 Reference value :  9.00000e-06
 Reference value :  9.00007e-06
 Reference value :  9.00016e-06
 Reference value :  9.00083e-06
 Reference value :  9.00158e-06
 Reference value :  9.00289e-06
 Reference value :  9.00472e-06
 Reference value :  9.00655e-06
 Reference value :  9.01151e-06
 Reference value :  9.01600e-06
 Reference value :  9.03600e-06
 Reference value :  9.13749e-06
 Reference value :  9.25017e-06
 Reference value :  9.25026e-06
 Reference value :  9.25069e-06
 Reference value :  9.25139e-06
 Reference value :  9.25298e-06
 Reference value :  9.25396e-06
 Reference value :  9.25501e-06
 Reference value :  9.25660e-06
 Reference value :  9.26972e-06
 Reference value :  9.45574e-06
 Reference value :  9.50007e-06
 Reference value :  9.50012e-06
 Reference value :  9.50034e-06
 Reference value :  9.50083e-06
 Reference value :  9.50158e-06
 Reference value :  9.50242e-06
 Reference value :  9.50289e-06
 Reference value :  9.50396e-06
 Reference value :  9.50500e-06
 Reference value :  9.50709e-06
 Reference value :  9.50996e-06
 Reference value :  9.51119e-06
 Reference value :  9.51323e-06
 Reference value :  9.51525e-06
 Reference value :  9.51911e-06
 Reference value :  9.53602e-06
 Reference value :  9.75010e-06
 Reference value :  9.75021e-06
 Reference value :  9.75045e-06
 Reference value :  9.75140e-06
 Reference value :  9.75299e-06
 Reference value :  9.75398e-06
 Reference value :  9.75523e-06
 Reference value :  9.75888e-06
 Reference value :  9.77235e-06
 Reference value :  9.87259e-06
 Reference value :  1.00000e-05
 Reference value :  1.00001e-05
 Reference value :  1.00001e-05
 Reference value :  1.00002e-05
 Reference value :  1.00005e-05
 Reference value :  1.00012e-05
 Reference value :  1.00016e-05
 Reference value :  1.00024e-05
 Reference value :  1.00034e-05
 Reference value :  1.00047e-05
 Reference value :  1.00062e-05
 Reference value :  1.00077e-05
 Reference value :  1.00096e-05
 Reference value :  1.00155e-05
 Reference value :  1.00469e-05
 Reference value :  1.02501e-05
 Reference value :  1.02502e-05
 Reference value :  1.02503e-05
 Reference value :  1.02507e-05
 Reference value :  1.02514e-05
 Reference value :  1.02530e-05
 Reference value :  1.02540e-05
 Reference value :  1.02545e-05
 Reference value :  1.02558e-05
 Reference value :  1.02603e-05
 Reference value :  1.03073e-05
 Reference value :  1.05000e-05
 Reference value :  1.05001e-05
 Reference value :  1.05002e-05
 Reference value :  1.05005e-05
 Reference value :  1.05012e-05
 Reference value :  1.05020e-05
 Reference value :  1.05029e-05
 Reference value :  1.05040e-05
 Reference value :  1.05050e-05
 Reference value :  1.05071e-05
 Reference value :  1.05112e-05
 Reference value :  1.05132e-05
 Reference value :  1.05153e-05
 Reference value :  1.05192e-05
 Reference value :  1.05289e-05
 Reference value :  1.05393e-05
 Reference value :  1.05501e-05
 Reference value :  1.05600e-05
 Reference value :  1.05790e-05
 Reference value :  1.06391e-05
 Reference value :  1.07501e-05
 Reference value :  1.07502e-05
 Reference value :  1.07503e-05
 Reference value :  1.07507e-05
 Reference value :  1.07514e-05
 Reference value :  1.07530e-05
 Reference value :  1.07539e-05
 Reference value :  1.07559e-05
 Reference value :  1.07649e-05
 Reference value :  1.10000e-05
 Reference value :  1.10001e-05
 Reference value :  1.10003e-05
 Reference value :  1.10012e-05
 Reference value :  1.10023e-05
 Reference value :  1.10033e-05
 Reference value :  1.10054e-05
 Reference value :  1.10066e-05
 Reference value :  1.10084e-05
 Reference value :  1.10136e-05
 Reference value :  1.10792e-05
 Reference value :  1.12502e-05
 Reference value :  1.12503e-05
 Reference value :  1.12510e-05
 Reference value :  1.12523e-05
 Reference value :  1.12534e-05
 Reference value :  1.12550e-05
 Reference value :  1.12575e-05
 Reference value :  1.12611e-05
 Reference value :  1.13199e-05
 Reference value :  1.15000e-05
 Reference value :  1.15002e-05
 Reference value :  1.15008e-05
 Reference value :  1.15020e-05
 Reference value :  1.15034e-05
 Reference value :  1.15048e-05
 Reference value :  1.15059e-05
 Reference value :  1.15076e-05
 Reference value :  1.15093e-05
 Reference value :  1.15102e-05
 Reference value :  1.15119e-05
 Reference value :  1.15136e-05
 Reference value :  1.15155e-05
 Reference value :  1.15177e-05
 Reference value :  1.15253e-05
 Reference value :  1.15375e-05
 Reference value :  1.15481e-05
 Reference value :  1.15567e-05
 Reference value :  1.15638e-05
 Reference value :  1.15679e-05
 Reference value :  1.15711e-05
 Reference value :  1.15852e-05
 Reference value :  1.16142e-05
 Reference value :  1.17124e-05
 Reference value :  1.17501e-05
 Reference value :  1.17502e-05
 Reference value :  1.17503e-05
 Reference value :  1.17510e-05
 Reference value :  1.17519e-05
 Reference value :  1.17530e-05
 Reference value :  1.17540e-05
 Reference value :  1.17552e-05
 Reference value :  1.17589e-05
 Reference value :  1.17724e-05
 Reference value :  1.18728e-05
 Reference value :  1.20000e-05
 Reference value :  1.20001e-05
 Reference value :  1.20002e-05
 Reference value :  1.20005e-05
 Reference value :  1.20012e-05
 Reference value :  1.20020e-05
 Reference value :  1.20029e-05
 Reference value :  1.20040e-05
 Reference value :  1.20055e-05
 Reference value :  1.20062e-05
 Reference value :  1.20077e-05
 Reference value :  1.20096e-05
 Reference value :  1.20205e-05
 Reference value :  1.20827e-05
 Reference value :  1.22501e-05
 Reference value :  1.22502e-05
 Reference value :  1.22502e-05
 Reference value :  1.22504e-05
 Reference value :  1.22514e-05
 Reference value :  1.22530e-05
 Reference value :  1.22534e-05
 Reference value :  1.22545e-05
 Reference value :  1.22566e-05
 Reference value :  1.22698e-05
 Reference value :  1.24557e-05
 Reference value :  1.25001e-05
 Reference value :  1.25002e-05
 Reference value :  1.25008e-05
 Reference value :  1.25016e-05
 Reference value :  1.25029e-05
 Reference value :  1.25045e-05
 Reference value :  1.25055e-05
 Reference value :  1.25085e-05
 Reference value :  1.25112e-05
 Reference value :  1.25132e-05
 Reference value :  1.25152e-05
 Reference value :  1.25174e-05
 Reference value :  1.25271e-05
 Reference value :  1.25340e-05
 Reference value :  1.25404e-05
 Reference value :  1.25535e-05
 Reference value :  1.25730e-05
 Reference value :  1.26488e-05
 Reference value :  1.27501e-05
 Reference value :  1.27502e-05
 Reference value :  1.27503e-05
 Reference value :  1.27510e-05
 Reference value :  1.27514e-05
 Reference value :  1.27530e-05
 Reference value :  1.27539e-05
 Reference value :  1.27559e-05
 Reference value :  1.27649e-05
 Reference value :  1.28689e-05
 Reference value :  1.30000e-05
 Reference value :  1.30001e-05
 Reference value :  1.30002e-05
 Reference value :  1.30008e-05
 Reference value :  1.30015e-05
 Reference value :  1.30028e-05
 Reference value :  1.30039e-05
 Reference value :  1.30054e-05
 Reference value :  1.30060e-05
 Reference value :  1.30075e-05
 Reference value :  1.30092e-05
 Reference value :  1.30114e-05
 Reference value :  1.30316e-05
 Reference value :  1.32501e-05
 Reference value :  1.32502e-05
 Reference value :  1.32503e-05
 Reference value :  1.32510e-05
 Reference value :  1.32519e-05
 Reference value :  1.32534e-05
 Reference value :  1.32550e-05
 Reference value :  1.32575e-05
 Reference value :  1.32596e-05
 Reference value :  1.32899e-05
 Reference value :  1.35000e-05
 Reference value :  1.35001e-05
 Reference value :  1.35003e-05
 Reference value :  1.35012e-05
 Reference value :  1.35020e-05
 Reference value :  1.35029e-05
 Reference value :  1.35039e-05
 Reference value :  1.35048e-05
 Reference value :  1.35066e-05
 Reference value :  1.35084e-05
 Reference value :  1.35102e-05
 Reference value :  1.35119e-05
 Reference value :  1.35136e-05
 Reference value :  1.35153e-05
 Reference value :  1.35174e-05
 Reference value :  1.35243e-05
 Reference value :  1.35326e-05
 Reference value :  1.35400e-05
 Reference value :  1.35481e-05
 Reference value :  1.35803e-05
 Reference value :  1.36488e-05
 Reference value :  1.36843e-05
 Reference value :  1.37122e-05
 Reference value :  1.37501e-05
 Reference value :  1.37502e-05
 Reference value :  1.37502e-05
 Reference value :  1.37504e-05
 Reference value :  1.37510e-05
 Reference value :  1.37514e-05
 Reference value :  1.37523e-05
 Reference value :  1.37534e-05
 Reference value :  1.37545e-05
 Reference value :  1.37559e-05
 Reference value :  1.37614e-05
 Reference value :  1.37852e-05
 Reference value :  1.39370e-05
 Reference value :  1.40000e-05
 Reference value :  1.40001e-05
 Reference value :  1.40001e-05
 Reference value :  1.40002e-05
 Reference value :  1.40005e-05
 Reference value :  1.40012e-05
 Reference value :  1.40019e-05
 Reference value :  1.40028e-05
 Reference value :  1.40039e-05
 Reference value :  1.40053e-05
 Reference value :  1.40060e-05
 Reference value :  1.40075e-05
 Reference value :  1.40092e-05
 Reference value :  1.40114e-05
 Reference value :  1.40224e-05
 Reference value :  1.40817e-05
 Reference value :  1.42501e-05
 Reference value :  1.42502e-05
 Reference value :  1.42503e-05
 Reference value :  1.42510e-05
 Reference value :  1.42519e-05
 Reference value :  1.42530e-05
 Reference value :  1.42540e-05
 Reference value :  1.42550e-05
 Reference value :  1.42566e-05
 Reference value :  1.42596e-05
 Reference value :  1.42747e-05
 Reference value :  1.44967e-05
 Reference value :  1.45001e-05
 Reference value :  1.45002e-05
 Reference value :  1.45005e-05
 Reference value :  1.45016e-05
 Reference value :  1.45024e-05
 Reference value :  1.45034e-05
 Reference value :  1.45044e-05
 Reference value :  1.45053e-05
 Reference value :  1.45066e-05
 Reference value :  1.45075e-05
 Reference value :  1.45093e-05
 Reference value :  1.45103e-05
 Reference value :  1.45120e-05
 Reference value :  1.45136e-05
 Reference value :  1.45154e-05
 Reference value :  1.45177e-05
 Reference value :  1.45250e-05
 Reference value :  1.45306e-05
 Reference value :  1.45360e-05
 Reference value :  1.45481e-05
 Reference value :  1.45817e-05
 Reference value :  1.46912e-05
 Reference value :  1.47501e-05
 Reference value :  1.47502e-05
 Reference value :  1.47503e-05
 Reference value :  1.47507e-05
 Reference value :  1.47514e-05
 Reference value :  1.47523e-05
 Reference value :  1.47535e-05
 Reference value :  1.47546e-05
 Reference value :  1.47560e-05
 Reference value :  1.47589e-05
 Reference value :  1.47723e-05
 Reference value :  1.48725e-05
 Reference value :  1.50000e-05
 Reference value :  1.50001e-05
 Reference value :  1.50001e-05
 Reference value :  1.50002e-05
 Reference value :  1.50008e-05
 Reference value :  1.50016e-05
 Reference value :  1.50024e-05
 Reference value :  1.50034e-05
 Reference value :  1.50047e-05
 Reference value :  1.50062e-05
 Reference value :  1.50077e-05
 Reference value :  1.50109e-05
 Reference value :  1.50295e-05
 Reference value :  1.52501e-05
 Reference value :  1.52502e-05
 Reference value :  1.52503e-05
 Reference value :  1.52510e-05
 Reference value :  1.52519e-05
 Reference value :  1.52530e-05
 Reference value :  1.52534e-05
 Reference value :  1.52545e-05
 Reference value :  1.52558e-05
 Reference value :  1.52636e-05
 Reference value :  1.53570e-05
 Reference value :  1.55007e-05
 Reference value :  1.55030e-05
 Reference value :  1.55043e-05
 Reference value :  1.55056e-05
 Reference value :  1.55080e-05
 Reference value :  1.55094e-05
 Reference value :  1.55120e-05
 Reference value :  1.55139e-05
 Reference value :  1.55158e-05
 Reference value :  1.55200e-05
 Reference value :  1.55277e-05
 Reference value :  1.55315e-05
 Reference value :  1.55393e-05
 Reference value :  1.55545e-05
 Reference value :  1.55954e-05
 Reference value :  1.57501e-05
 Reference value :  1.57502e-05
 Reference value :  1.57503e-05
 Reference value :  1.57510e-05
 Reference value :  1.57519e-05
 Reference value :  1.57529e-05
 Reference value :  1.57534e-05
 Reference value :  1.57552e-05
 Reference value :  1.57587e-05
 Reference value :  1.57714e-05
 Reference value :  1.59709e-05
 Reference value :  1.60000e-05
 Reference value :  1.60001e-05
 Reference value :  1.60002e-05
 Reference value :  1.60008e-05
 Reference value :  1.60015e-05
 Reference value :  1.60028e-05
 Reference value :  1.60046e-05
 Reference value :  1.60060e-05
 Reference value :  1.60075e-05
 Reference value :  1.60092e-05
 Reference value :  1.60103e-05
 Reference value :  1.60167e-05
 Reference value :  1.60474e-05
 Reference value :  1.62501e-05
 Reference value :  1.62502e-05
 Reference value :  1.62503e-05
 Reference value :  1.62507e-05
 Reference value :  1.62514e-05
 Reference value :  1.62530e-05
 Reference value :  1.62540e-05
 Reference value :  1.62550e-05
 Reference value :  1.62575e-05
 Reference value :  1.62596e-05
 Reference value :  1.62747e-05
 Reference value :  1.63783e-05
 Reference value :  1.65000e-05
 Reference value :  1.65001e-05
 Reference value :  1.65002e-05
 Reference value :  1.65005e-05
 Reference value :  1.65012e-05
 Reference value :  1.65020e-05
 Reference value :  1.65029e-05
 Reference value :  1.65039e-05
 Reference value :  1.65048e-05
 Reference value :  1.65059e-05
 Reference value :  1.65074e-05
 Reference value :  1.65091e-05
 Reference value :  1.65109e-05
 Reference value :  1.65169e-05
 Reference value :  1.65237e-05
 Reference value :  1.65275e-05
 Reference value :  1.65303e-05
 Reference value :  1.65369e-05
 Reference value :  1.65474e-05
 Reference value :  1.65621e-05
 Reference value :  1.66002e-05
 Reference value :  1.66870e-05
 Reference value :  1.67501e-05
 Reference value :  1.67502e-05
 Reference value :  1.67502e-05
 Reference value :  1.67503e-05
 Reference value :  1.67507e-05
 Reference value :  1.67514e-05
 Reference value :  1.67523e-05
 Reference value :  1.67530e-05
 Reference value :  1.67545e-05
 Reference value :  1.67562e-05
 Reference value :  1.67592e-05
 Reference value :  1.67750e-05
 Reference value :  1.68821e-05
 Reference value :  1.70000e-05
 Reference value :  1.70000e-05
 Reference value :  1.70000e-05
 Reference value :  1.70000e-05
 Reference value :  1.70001e-05
 Reference value :  1.70001e-05
 Reference value :  1.70002e-05
 Reference value :  1.70004e-05
 Reference value :  1.70012e-05
 Reference value :  1.70020e-05
 Reference value :  1.70029e-05
 Reference value :  1.70040e-05
 Reference value :  1.70045e-05
 Reference value :  1.70055e-05
 Reference value :  1.70090e-05
 Reference value :  1.70173e-05
 Reference value :  1.70180e-05
 Reference value :  1.70218e-05
 Reference value :  1.70238e-05
 Reference value :  1.70276e-05
 Reference value :  1.70292e-05
 Reference value :  1.70323e-05
 Reference value :  1.70368e-05
 Reference value :  1.70460e-05
 Reference value :  1.70773e-05
 Reference value :  1.71577e-05
 Reference value :  1.72501e-05
 Reference value :  1.72502e-05
 Reference value :  1.72504e-05
 Reference value :  1.72514e-05
 Reference value :  1.72530e-05
 Reference value :  1.72540e-05
 Reference value :  1.72551e-05
 Reference value :  1.72587e-05
 Reference value :  1.73111e-05
 Reference value :  1.75000e-05
 Reference value :  1.75001e-05
 Reference value :  1.75002e-05
 Reference value :  1.75005e-05
 Reference value :  1.75012e-05
 Reference value :  1.75016e-05
 Reference value :  1.75024e-05
 Reference value :  1.75029e-05
 Reference value :  1.75040e-05
 Reference value :  1.75055e-05
 Reference value :  1.75065e-05
 Reference value :  1.75090e-05
 Reference value :  1.75115e-05
 Reference value :  1.75141e-05
 Reference value :  1.75180e-05
 Reference value :  1.75362e-05
 Reference value :  1.76366e-05
 Reference value :  1.77501e-05
 Reference value :  1.77502e-05
 Reference value :  1.77504e-05
 Reference value :  1.77514e-05
 Reference value :  1.77523e-05
 Reference value :  1.77534e-05
 Reference value :  1.77545e-05
 Reference value :  1.77558e-05
 Reference value :  1.77602e-05
 Reference value :  1.77822e-05
 Reference value :  1.78567e-05
 Reference value :  1.80007e-05
 Reference value :  1.80022e-05
 Reference value :  1.80030e-05
 Reference value :  1.80038e-05
 Reference value :  1.80044e-05
 Reference value :  1.80050e-05
 Reference value :  1.80056e-05
 Reference value :  1.80069e-05
 Reference value :  1.80094e-05
 Reference value :  1.80121e-05
 Reference value :  1.80139e-05
 Reference value :  1.80158e-05
 Reference value :  1.80220e-05
 Reference value :  1.81092e-05
 Reference value :  1.82501e-05
 Reference value :  1.82502e-05
 Reference value :  1.82503e-05
 Reference value :  1.82507e-05
 Reference value :  1.82514e-05
 Reference value :  1.82523e-05
 Reference value :  1.82534e-05
 Reference value :  1.82545e-05
 Reference value :  1.82586e-05
 Reference value :  1.83602e-05
 Reference value :  1.85001e-05
 Reference value :  1.85002e-05
 Reference value :  1.85008e-05
 Reference value :  1.85020e-05
 Reference value :  1.85029e-05
 Reference value :  1.85047e-05
 Reference value :  1.85062e-05
 Reference value :  1.85077e-05
 Reference value :  1.85096e-05
 Reference value :  1.85155e-05
 Reference value :  1.85465e-05
 Reference value :  1.87501e-05
 Reference value :  1.87502e-05
 Reference value :  1.87502e-05
 Reference value :  1.87504e-05
 Reference value :  1.87510e-05
 Reference value :  1.87514e-05
 Reference value :  1.87523e-05
 Reference value :  1.87534e-05
 Reference value :  1.87545e-05
 Reference value :  1.87558e-05
 Reference value :  1.87603e-05
 Reference value :  1.87826e-05
 Reference value :  1.89594e-05
 Reference value :  1.90000e-05
 Reference value :  1.90001e-05
 Reference value :  1.90002e-05
 Reference value :  1.90005e-05
 Reference value :  1.90012e-05
 Reference value :  1.90016e-05
 Reference value :  1.90024e-05
 Reference value :  1.90034e-05
 Reference value :  1.90050e-05
 Reference value :  1.90063e-05
 Reference value :  1.90100e-05
 Reference value :  1.90112e-05
 Reference value :  1.90132e-05
 Reference value :  1.90163e-05
 Reference value :  1.90240e-05
 Reference value :  1.90397e-05
 Reference value :  1.90551e-05
 Reference value :  1.90793e-05
 Reference value :  1.91406e-05
 Reference value :  1.92501e-05
 Reference value :  1.92502e-05
 Reference value :  1.92504e-05
 Reference value :  1.92514e-05
 Reference value :  1.92523e-05
 Reference value :  1.92534e-05
 Reference value :  1.92546e-05
 Reference value :  1.92588e-05
 Reference value :  1.92856e-05
 Reference value :  1.95004e-05
 Reference value :  1.95015e-05
 Reference value :  1.95028e-05
 Reference value :  1.95040e-05
 Reference value :  1.95062e-05
 Reference value :  1.95078e-05
 Reference value :  1.95127e-05
 Reference value :  1.95888e-05
 Reference value :  1.97502e-05
 Reference value :  1.97503e-05
 Reference value :  1.97507e-05
 Reference value :  1.97514e-05
 Reference value :  1.97530e-05
 Reference value :  1.97540e-05
 Reference value :  1.97550e-05
 Reference value :  1.97566e-05
 Reference value :  1.97583e-05
 Reference value :  1.97610e-05
 Reference value :  1.97895e-05
 Reference value :  2.00000e-05
 Reference value :  2.00001e-05
 Reference value :  2.00003e-05
 Reference value :  2.00016e-05
 Reference value :  2.00029e-05
 Reference value :  2.00044e-05
 Reference value :  2.00059e-05
 Reference value :  2.00084e-05
 Reference value :  2.00102e-05
 Reference value :  2.00119e-05
 Reference value :  2.00145e-05
 Reference value :  2.00177e-05
 Reference value :  2.00297e-05
 Reference value :  2.00480e-05
 Reference value :  2.00562e-05
 Reference value :  2.00627e-05
 Reference value :  2.00698e-05
 Reference value :  2.00904e-05
 Reference value :  2.01734e-05
 Reference value :  2.02501e-05
 Reference value :  2.02502e-05
 Reference value :  2.02503e-05
 Reference value :  2.02510e-05
 Reference value :  2.02523e-05
 Reference value :  2.02535e-05
 Reference value :  2.02552e-05
 Reference value :  2.02616e-05
 Reference value :  2.03727e-05
 Reference value :  2.05002e-05
 Reference value :  2.05009e-05
 Reference value :  2.05019e-05
 Reference value :  2.05028e-05
 Reference value :  2.05046e-05
 Reference value :  2.05060e-05
 Reference value :  2.05083e-05
 Reference value :  2.05113e-05
 Reference value :  2.05323e-05
 Reference value :  2.07501e-05
 Reference value :  2.07502e-05
 Reference value :  2.07502e-05
 Reference value :  2.07503e-05
 Reference value :  2.07507e-05
 Reference value :  2.07514e-05
 Reference value :  2.07523e-05
 Reference value :  2.07534e-05
 Reference value :  2.07545e-05
 Reference value :  2.07566e-05
 Reference value :  2.07697e-05
 Reference value :  2.09548e-05
 Reference value :  2.10001e-05
 Reference value :  2.10002e-05
 Reference value :  2.10005e-05
 Reference value :  2.10016e-05
 Reference value :  2.10029e-05
 Reference value :  2.10045e-05
 Reference value :  2.10050e-05
 Reference value :  2.10063e-05
 Reference value :  2.10085e-05
 Reference value :  2.10112e-05
 Reference value :  2.10132e-05
 Reference value :  2.10152e-05
 Reference value :  2.10174e-05
 Reference value :  2.10208e-05
 Reference value :  2.10272e-05
 Reference value :  2.10341e-05
 Reference value :  2.10371e-05
 Reference value :  2.10436e-05
 Reference value :  2.10536e-05
 Reference value :  2.10733e-05
 Reference value :  2.11492e-05
 Reference value :  2.12501e-05
 Reference value :  2.12502e-05
 Reference value :  2.12503e-05
 Reference value :  2.12507e-05
 Reference value :  2.12514e-05
 Reference value :  2.12530e-05
 Reference value :  2.12539e-05
 Reference value :  2.12559e-05
 Reference value :  2.12615e-05
 Reference value :  2.13134e-05
 Reference value :  2.15000e-05
 Reference value :  2.15001e-05
 Reference value :  2.15002e-05
 Reference value :  2.15005e-05
 Reference value :  2.15012e-05
 Reference value :  2.15019e-05
 Reference value :  2.15028e-05
 Reference value :  2.15039e-05
 Reference value :  2.15054e-05
 Reference value :  2.15060e-05
 Reference value :  2.15075e-05
 Reference value :  2.15103e-05
 Reference value :  2.15221e-05
 Reference value :  2.16426e-05
 Reference value :  2.17501e-05
 Reference value :  2.17502e-05
 Reference value :  2.17503e-05
 Reference value :  2.17507e-05
 Reference value :  2.17514e-05
 Reference value :  2.17530e-05
 Reference value :  2.17534e-05
 Reference value :  2.17545e-05
 Reference value :  2.17558e-05
 Reference value :  2.17584e-05
 Reference value :  2.17636e-05
 Reference value :  2.18198e-05
 Reference value :  2.20000e-05
 Reference value :  2.20001e-05
 Reference value :  2.20003e-05
 Reference value :  2.20008e-05
 Reference value :  2.20016e-05
 Reference value :  2.20024e-05
 Reference value :  2.20034e-05
 Reference value :  2.20044e-05
 Reference value :  2.20053e-05
 Reference value :  2.20076e-05
 Reference value :  2.20101e-05
 Reference value :  2.20127e-05
 Reference value :  2.20153e-05
 Reference value :  2.20209e-05
 Reference value :  2.20371e-05
 Reference value :  2.20455e-05
 Reference value :  2.20798e-05
 Reference value :  2.21557e-05
 Reference value :  2.22034e-05
 Reference value :  2.22476e-05
 Reference value :  2.22501e-05
 Reference value :  2.22503e-05
 Reference value :  2.22510e-05
 Reference value :  2.22519e-05
 Reference value :  2.22530e-05
 Reference value :  2.22545e-05
 Reference value :  2.22587e-05
 Reference value :  2.23123e-05
 Reference value :  2.25000e-05
 Reference value :  2.25001e-05
 Reference value :  2.25005e-05
 Reference value :  2.25015e-05
 Reference value :  2.25023e-05
 Reference value :  2.25028e-05
 Reference value :  2.25039e-05
 Reference value :  2.25053e-05
 Reference value :  2.25060e-05
 Reference value :  2.25075e-05
 Reference value :  2.25102e-05
 Reference value :  2.25224e-05
 Reference value :  2.26479e-05
 Reference value :  2.27501e-05
 Reference value :  2.27502e-05
 Reference value :  2.27503e-05
 Reference value :  2.27510e-05
 Reference value :  2.27519e-05
 Reference value :  2.27530e-05
 Reference value :  2.27534e-05
 Reference value :  2.27545e-05
 Reference value :  2.27558e-05
 Reference value :  2.27575e-05
 Reference value :  2.27596e-05
 Reference value :  2.27673e-05
 Reference value :  2.28190e-05
 Reference value :  2.29963e-05
 Reference value :  2.30001e-05
 Reference value :  2.30001e-05
 Reference value :  2.30001e-05
 Reference value :  2.30003e-05
 Reference value :  2.30007e-05
 Reference value :  2.30015e-05
 Reference value :  2.30023e-05
 Reference value :  2.30033e-05
 Reference value :  2.30042e-05
 Reference value :  2.30051e-05
 Reference value :  2.30072e-05
 Reference value :  2.30091e-05
 Reference value :  2.30109e-05
 Reference value :  2.30129e-05
 Reference value :  2.30149e-05
 Reference value :  2.30182e-05
 Reference value :  2.30246e-05
 Reference value :  2.30283e-05
 Reference value :  2.30322e-05
 Reference value :  2.30581e-05
 Reference value :  2.32501e-05
 Reference value :  2.32502e-05
 Reference value :  2.32503e-05
 Reference value :  2.32507e-05
 Reference value :  2.32514e-05
 Reference value :  2.32530e-05
 Reference value :  2.32540e-05
 Reference value :  2.32552e-05
 Reference value :  2.32588e-05
 Reference value :  2.32863e-05
 Reference value :  2.34841e-05
 Reference value :  2.35000e-05
 Reference value :  2.35001e-05
 Reference value :  2.35002e-05
 Reference value :  2.35003e-05
 Reference value :  2.35008e-05
 Reference value :  2.35016e-05
 Reference value :  2.35024e-05
 Reference value :  2.35029e-05
 Reference value :  2.35040e-05
 Reference value :  2.35062e-05
 Reference value :  2.35077e-05
 Reference value :  2.35109e-05
 Reference value :  2.35296e-05
 Reference value :  2.37501e-05
 Reference value :  2.37502e-05
 Reference value :  2.37507e-05
 Reference value :  2.37514e-05
 Reference value :  2.37530e-05
 Reference value :  2.37540e-05
 Reference value :  2.37550e-05
 Reference value :  2.37582e-05
 Reference value :  2.38065e-05
 Reference value :  2.40000e-05
 Reference value :  2.40001e-05
 Reference value :  2.40002e-05
 Reference value :  2.40005e-05
 Reference value :  2.40016e-05
 Reference value :  2.40024e-05
 Reference value :  2.40029e-05
 Reference value :  2.40040e-05
 Reference value :  2.40050e-05
 Reference value :  2.40071e-05
 Reference value :  2.40100e-05
 Reference value :  2.40112e-05
 Reference value :  2.40132e-05
 Reference value :  2.40152e-05
 Reference value :  2.40174e-05
 Reference value :  2.40260e-05
 Reference value :  2.40352e-05
 Reference value :  2.40428e-05
 Reference value :  2.40466e-05
 Reference value :  2.40664e-05
 Reference value :  2.40984e-05
 Reference value :  2.41698e-05
 Reference value :  2.42501e-05
 Reference value :  2.42502e-05
 Reference value :  2.42503e-05
 Reference value :  2.42514e-05
 Reference value :  2.42530e-05
 Reference value :  2.42534e-05
 Reference value :  2.42546e-05
 Reference value :  2.42573e-05
 Reference value :  2.42857e-05
 Reference value :  2.45000e-05
 Reference value :  2.45001e-05
 Reference value :  2.45002e-05
 Reference value :  2.45005e-05
 Reference value :  2.45015e-05
 Reference value :  2.45023e-05
 Reference value :  2.45033e-05
 Reference value :  2.45046e-05
 Reference value :  2.45060e-05
 Reference value :  2.45075e-05
 Reference value :  2.45092e-05
 Reference value :  2.45114e-05
 Reference value :  2.45221e-05
 Reference value :  2.46425e-05
 Reference value :  2.47501e-05
 Reference value :  2.47502e-05
 Reference value :  2.47507e-05
 Reference value :  2.47514e-05
 Reference value :  2.47519e-05
 Reference value :  2.47534e-05
 Reference value :  2.47550e-05
 Reference value :  2.47566e-05
 Reference value :  2.47596e-05
 Reference value :  2.47895e-05
 Reference value :  2.50000e-05
 Reference value :  2.50001e-05
 Reference value :  2.50003e-05
 Reference value :  2.50012e-05
 Reference value :  2.50024e-05
 Reference value :  2.50034e-05
 Reference value :  2.50044e-05
 Reference value :  2.50066e-05
 Reference value :  2.50099e-05
 Reference value :  2.50139e-05
 Reference value :  2.50183e-05
 Reference value :  2.50231e-05
 Reference value :  2.50317e-05
 Reference value :  2.50625e-05
 Reference value :  2.52501e-05
 Reference value :  2.52502e-05
 Reference value :  2.52504e-05
 Reference value :  2.52514e-05
 Reference value :  2.52530e-05
 Reference value :  2.52553e-05
 Reference value :  2.52592e-05
 Reference value :  2.53217e-05
 Reference value :  2.55000e-05
 Reference value :  2.55000e-05
 Reference value :  2.55000e-05
 Reference value :  2.55000e-05
 Reference value :  2.55001e-05
 Reference value :  2.55003e-05
 Reference value :  2.55007e-05
 Reference value :  2.55020e-05
 Reference value :  2.55029e-05
 Reference value :  2.55045e-05
 Reference value :  2.55055e-05
 Reference value :  2.55090e-05
 Reference value :  2.55224e-05
 Reference value :  2.55262e-05
 Reference value :  2.55317e-05
 Reference value :  2.55358e-05
 Reference value :  2.55398e-05
 Reference value :  2.55488e-05
 Reference value :  2.55697e-05
 Reference value :  2.56611e-05
 Reference value :  2.57501e-05
 Reference value :  2.57502e-05
 Reference value :  2.57507e-05
 Reference value :  2.57519e-05
 Reference value :  2.57534e-05
 Reference value :  2.57551e-05
 Reference value :  2.57614e-05
 Reference value :  2.58112e-05
 Reference value :  2.60000e-05
 Reference value :  2.60001e-05
 Reference value :  2.60002e-05
 Reference value :  2.60003e-05
 Reference value :  2.60008e-05
 Reference value :  2.60016e-05
 Reference value :  2.60024e-05
 Reference value :  2.60029e-05
 Reference value :  2.60040e-05
 Reference value :  2.60065e-05
 Reference value :  2.60101e-05
 Reference value :  2.60141e-05
 Reference value :  2.60360e-05
 Reference value :  2.62501e-05
 Reference value :  2.62502e-05
 Reference value :  2.62503e-05
 Reference value :  2.62514e-05
 Reference value :  2.62534e-05
 Reference value :  2.62558e-05
 Reference value :  2.62821e-05
 Reference value :  2.65007e-05
 Reference value :  2.65030e-05
 Reference value :  2.65038e-05
 Reference value :  2.65044e-05
 Reference value :  2.65056e-05
 Reference value :  2.65094e-05
 Reference value :  2.65121e-05
 Reference value :  2.65139e-05
 Reference value :  2.65170e-05
 Reference value :  2.65261e-05
 Reference value :  2.66148e-05
 Reference value :  2.67501e-05
 Reference value :  2.67502e-05
 Reference value :  2.67503e-05
 Reference value :  2.67504e-05
 Reference value :  2.67514e-05
 Reference value :  2.67523e-05
 Reference value :  2.67530e-05
 Reference value :  2.67534e-05
 Reference value :  2.67545e-05
 Reference value :  2.67559e-05
 Reference value :  2.67586e-05
 Reference value :  2.67645e-05
 Reference value :  2.67837e-05
 Reference value :  2.69633e-05
 Reference value :  2.70000e-05
 Reference value :  2.70001e-05
 Reference value :  2.70001e-05
 Reference value :  2.70002e-05
 Reference value :  2.70005e-05
 Reference value :  2.70012e-05
 Reference value :  2.70016e-05
 Reference value :  2.70024e-05
 Reference value :  2.70029e-05
 Reference value :  2.70034e-05
 Reference value :  2.70047e-05
 Reference value :  2.70062e-05
 Reference value :  2.70077e-05
 Reference value :  2.70096e-05
 Reference value :  2.70155e-05
 Reference value :  2.70465e-05
 Reference value :  2.72501e-05
 Reference value :  2.72502e-05
 Reference value :  2.72502e-05
 Reference value :  2.72504e-05
 Reference value :  2.72510e-05
 Reference value :  2.72514e-05
 Reference value :  2.72523e-05
 Reference value :  2.72534e-05
 Reference value :  2.72545e-05
 Reference value :  2.72558e-05
 Reference value :  2.72603e-05
 Reference value :  2.72825e-05
 Reference value :  2.74590e-05
 Reference value :  2.75000e-05
 Reference value :  2.75001e-05
 Reference value :  2.75002e-05
 Reference value :  2.75005e-05
 Reference value :  2.75012e-05
 Reference value :  2.75020e-05
 Reference value :  2.75029e-05
 Reference value :  2.75040e-05
 Reference value :  2.75050e-05
 Reference value :  2.75071e-05
 Reference value :  2.75100e-05
 Reference value :  2.75122e-05
 Reference value :  2.75143e-05
 Reference value :  2.75163e-05
 Reference value :  2.75192e-05
 Reference value :  2.75289e-05
 Reference value :  2.75401e-05
 Reference value :  2.75511e-05
 Reference value :  2.75663e-05
 Reference value :  2.76004e-05
 Reference value :  2.76814e-05
 Reference value :  2.77501e-05
 Reference value :  2.77502e-05
 Reference value :  2.77503e-05
 Reference value :  2.77504e-05
 Reference value :  2.77510e-05
 Reference value :  2.77514e-05
 Reference value :  2.77523e-05
 Reference value :  2.77530e-05
 Reference value :  2.77534e-05
 Reference value :  2.77546e-05
 Reference value :  2.77559e-05
 Reference value :  2.77615e-05
 Reference value :  2.77856e-05
 Reference value :  2.80000e-05
 Reference value :  2.80004e-05
 Reference value :  2.80015e-05
 Reference value :  2.80028e-05
 Reference value :  2.80048e-05
 Reference value :  2.80062e-05
 Reference value :  2.80078e-05
 Reference value :  2.80107e-05
 Reference value :  2.80330e-05
 Reference value :  2.82501e-05
 Reference value :  2.82502e-05
 Reference value :  2.82504e-05
 Reference value :  2.82514e-05
 Reference value :  2.82530e-05
 Reference value :  2.82540e-05
 Reference value :  2.82550e-05
 Reference value :  2.82575e-05
 Reference value :  2.82596e-05
 Reference value :  2.82895e-05
 Reference value :  2.85000e-05
 Reference value :  2.85001e-05
 Reference value :  2.85003e-05
 Reference value :  2.85008e-05
 Reference value :  2.85016e-05
 Reference value :  2.85029e-05
 Reference value :  2.85044e-05
 Reference value :  2.85059e-05
 Reference value :  2.85076e-05
 Reference value :  2.85093e-05
 Reference value :  2.85102e-05
 Reference value :  2.85119e-05
 Reference value :  2.85136e-05
 Reference value :  2.85155e-05
 Reference value :  2.85177e-05
 Reference value :  2.85253e-05
 Reference value :  2.85470e-05
 Reference value :  2.85551e-05
 Reference value :  2.85649e-05
 Reference value :  2.85816e-05
 Reference value :  2.86610e-05
 Reference value :  2.87501e-05
 Reference value :  2.87503e-05
 Reference value :  2.87510e-05
 Reference value :  2.87523e-05
 Reference value :  2.87535e-05
 Reference value :  2.87552e-05
 Reference value :  2.87652e-05
 Reference value :  2.89875e-05
 Reference value :  2.90002e-05
 Reference value :  2.90009e-05
 Reference value :  2.90019e-05
 Reference value :  2.90028e-05
 Reference value :  2.90046e-05
 Reference value :  2.90059e-05
 Reference value :  2.90083e-05
 Reference value :  2.90135e-05
 Reference value :  2.92501e-05
 Reference value :  2.92502e-05
 Reference value :  2.92507e-05
 Reference value :  2.92519e-05
 Reference value :  2.92534e-05
 Reference value :  2.92558e-05
 Reference value :  2.92819e-05
 Reference value :  2.95001e-05
 Reference value :  2.95002e-05
 Reference value :  2.95012e-05
 Reference value :  2.95029e-05
 Reference value :  2.95050e-05
 Reference value :  2.95085e-05
 Reference value :  2.95112e-05
 Reference value :  2.95143e-05
 Reference value :  2.95163e-05
 Reference value :  2.95235e-05
 Reference value :  2.95344e-05
 Reference value :  2.95405e-05
 Reference value :  2.95539e-05
 Reference value :  2.95821e-05
 Reference value :  2.96963e-05
 Reference value :  2.97502e-05
 Reference value :  2.97503e-05
 Reference value :  2.97514e-05
 Reference value :  2.97530e-05
 Reference value :  2.97539e-05
 Reference value :  2.97559e-05
 Reference value :  2.97719e-05
 Reference value :  2.99797e-05
 Reference value :  3.00001e-05
 Reference value :  3.00002e-05
 Reference value :  3.00008e-05
 Reference value :  3.00019e-05
 Reference value :  3.00033e-05
 Reference value :  3.00054e-05
 Reference value :  3.00066e-05
 Reference value :  3.00084e-05
 Reference value :  3.00136e-05
 Reference value :  3.01426e-05
 Reference value :  3.02502e-05
 Reference value :  3.02503e-05
 Reference value :  3.02514e-05
 Reference value :  3.02530e-05
 Reference value :  3.02540e-05
 Reference value :  3.02550e-05
 Reference value :  3.02575e-05
 Reference value :  3.02610e-05
 Reference value :  3.03198e-05
 Reference value :  3.05000e-05
 Reference value :  3.05001e-05
 Reference value :  3.05003e-05
 Reference value :  3.05012e-05
 Reference value :  3.05020e-05
 Reference value :  3.05029e-05
 Reference value :  3.05039e-05
 Reference value :  3.05048e-05
 Reference value :  3.05067e-05
 Reference value :  3.05084e-05
 Reference value :  3.05101e-05
 Reference value :  3.05119e-05
 Reference value :  3.05136e-05
 Reference value :  3.05164e-05
 Reference value :  3.05245e-05
 Reference value :  3.05319e-05
 Reference value :  3.05359e-05
 Reference value :  3.05414e-05
 Reference value :  3.05510e-05
 Reference value :  3.05902e-05
 Reference value :  3.06833e-05
 Reference value :  3.07451e-05
 Reference value :  3.07501e-05
 Reference value :  3.07502e-05
 Reference value :  3.07503e-05
 Reference value :  3.07510e-05
 Reference value :  3.07519e-05
 Reference value :  3.07530e-05
 Reference value :  3.07539e-05
 Reference value :  3.07553e-05
 Reference value :  3.07573e-05
 Reference value :  3.07648e-05
 Reference value :  3.07852e-05
 Reference value :  3.09090e-05
 Reference value :  3.10000e-05
 Reference value :  3.10001e-05
 Reference value :  3.10002e-05
 Reference value :  3.10005e-05
 Reference value :  3.10012e-05
 Reference value :  3.10019e-05
 Reference value :  3.10028e-05
 Reference value :  3.10039e-05
 Reference value :  3.10053e-05
 Reference value :  3.10060e-05
 Reference value :  3.10075e-05
 Reference value :  3.10103e-05
 Reference value :  3.10223e-05
 Reference value :  3.11476e-05
 Reference value :  3.12501e-05
 Reference value :  3.12502e-05
 Reference value :  3.12503e-05
 Reference value :  3.12510e-05
 Reference value :  3.12519e-05
 Reference value :  3.12534e-05
 Reference value :  3.12545e-05
 Reference value :  3.12558e-05
 Reference value :  3.12575e-05
 Reference value :  3.12596e-05
 Reference value :  3.12746e-05
 Reference value :  3.14956e-05
 Reference value :  3.15000e-05
 Reference value :  3.15001e-05
 Reference value :  3.15003e-05
 Reference value :  3.15012e-05
 Reference value :  3.15020e-05
 Reference value :  3.15029e-05
 Reference value :  3.15039e-05
 Reference value :  3.15048e-05
 Reference value :  3.15066e-05
 Reference value :  3.15084e-05
 Reference value :  3.15102e-05
 Reference value :  3.15120e-05
 Reference value :  3.15136e-05
 Reference value :  3.15166e-05
 Reference value :  3.15213e-05
 Reference value :  3.15261e-05
 Reference value :  3.15322e-05
 Reference value :  3.15797e-05
 Reference value :  3.17501e-05
 Reference value :  3.17502e-05
 Reference value :  3.17504e-05
 Reference value :  3.17514e-05
 Reference value :  3.17530e-05
 Reference value :  3.17540e-05
 Reference value :  3.17560e-05
 Reference value :  3.17652e-05
 Reference value :  3.18722e-05
 Reference value :  3.20000e-05
 Reference value :  3.20001e-05
 Reference value :  3.20002e-05
 Reference value :  3.20003e-05
 Reference value :  3.20008e-05
 Reference value :  3.20016e-05
 Reference value :  3.20024e-05
 Reference value :  3.20034e-05
 Reference value :  3.20047e-05
 Reference value :  3.20062e-05
 Reference value :  3.20077e-05
 Reference value :  3.20096e-05
 Reference value :  3.20155e-05
 Reference value :  3.20472e-05
 Reference value :  3.22501e-05
 Reference value :  3.22501e-05
 Reference value :  3.22502e-05
 Reference value :  3.22503e-05
 Reference value :  3.22507e-05
 Reference value :  3.22514e-05
 Reference value :  3.22523e-05
 Reference value :  3.22530e-05
 Reference value :  3.22534e-05
 Reference value :  3.22545e-05
 Reference value :  3.22558e-05
 Reference value :  3.22603e-05
 Reference value :  3.23072e-05
 Reference value :  3.25000e-05
 Reference value :  3.25001e-05
 Reference value :  3.25001e-05
 Reference value :  3.25003e-05
 Reference value :  3.25008e-05
 Reference value :  3.25016e-05
 Reference value :  3.25024e-05
 Reference value :  3.25034e-05
 Reference value :  3.25045e-05
 Reference value :  3.25055e-05
 Reference value :  3.25085e-05
 Reference value :  3.25112e-05
 Reference value :  3.25143e-05
 Reference value :  3.25191e-05
 Reference value :  3.25359e-05
 Reference value :  3.25544e-05
 Reference value :  3.27280e-05
 Reference value :  3.27502e-05
 Reference value :  3.27510e-05
 Reference value :  3.27530e-05
 Reference value :  3.27553e-05
 Reference value :  3.27649e-05
 Reference value :  3.30000e-05
 Reference value :  3.30001e-05
 Reference value :  3.30003e-05
 Reference value :  3.30015e-05
 Reference value :  3.30028e-05
 Reference value :  3.30054e-05
 Reference value :  3.30066e-05
 Reference value :  3.30084e-05
 Reference value :  3.30114e-05
 Reference value :  3.30795e-05
 Reference value :  3.32502e-05
 Reference value :  3.32504e-05
 Reference value :  3.32514e-05
 Reference value :  3.32530e-05
 Reference value :  3.32545e-05
 Reference value :  3.32566e-05
 Reference value :  3.32596e-05
 Reference value :  3.32902e-05
 Reference value :  3.35018e-05
 Reference value :  3.35074e-05
 Reference value :  3.35113e-05
 Reference value :  3.35143e-05
 Reference value :  3.35187e-05
 Reference value :  3.35615e-05
 Reference value :  3.37501e-05
 Reference value :  3.37502e-05
 Reference value :  3.37507e-05
 Reference value :  3.37518e-05
 Reference value :  3.37533e-05
 Reference value :  3.37565e-05
 Reference value :  3.37676e-05
 Reference value :  3.39291e-05
 Reference value :  3.40000e-05
 Reference value :  3.40000e-05
 Reference value :  3.40001e-05
 Reference value :  3.40003e-05
 Reference value :  3.40016e-05
 Reference value :  3.40024e-05
 Reference value :  3.40029e-05
 Reference value :  3.40040e-05
 Reference value :  3.40045e-05
 Reference value :  3.40055e-05
 Reference value :  3.40090e-05
 Reference value :  3.40224e-05
 Reference value :  3.40263e-05
 Reference value :  3.40292e-05
 Reference value :  3.40317e-05
 Reference value :  3.40358e-05
 Reference value :  3.40398e-05
 Reference value :  3.40488e-05
 Reference value :  3.40697e-05
 Reference value :  3.41278e-05
 Reference value :  3.42501e-05
 Reference value :  3.42502e-05
 Reference value :  3.42502e-05
 Reference value :  3.42504e-05
 Reference value :  3.42514e-05
 Reference value :  3.42530e-05
 Reference value :  3.42540e-05
 Reference value :  3.42551e-05
 Reference value :  3.42587e-05
 Reference value :  3.42846e-05
 Reference value :  3.45000e-05
 Reference value :  3.45001e-05
 Reference value :  3.45001e-05
 Reference value :  3.45003e-05
 Reference value :  3.45012e-05
 Reference value :  3.45020e-05
 Reference value :  3.45029e-05
 Reference value :  3.45047e-05
 Reference value :  3.45065e-05
 Reference value :  3.45101e-05
 Reference value :  3.45128e-05
 Reference value :  3.45160e-05
 Reference value :  3.45360e-05
 Reference value :  3.47501e-05
 Reference value :  3.47502e-05
 Reference value :  3.47503e-05
 Reference value :  3.47507e-05
 Reference value :  3.47514e-05
 Reference value :  3.47530e-05
 Reference value :  3.47540e-05
 Reference value :  3.47550e-05
 Reference value :  3.47566e-05
 Reference value :  3.47697e-05
 Reference value :  3.49559e-05
 Reference value :  3.50000e-05
 Reference value :  3.50001e-05
 Reference value :  3.50002e-05
 Reference value :  3.50008e-05
 Reference value :  3.50016e-05
 Reference value :  3.50029e-05
 Reference value :  3.50040e-05
 Reference value :  3.50050e-05
 Reference value :  3.50071e-05
 Reference value :  3.50100e-05
 Reference value :  3.50112e-05
 Reference value :  3.50132e-05
 Reference value :  3.50152e-05
 Reference value :  3.50191e-05
 Reference value :  3.50360e-05
 Reference value :  3.51170e-05
 Reference value :  3.52501e-05
 Reference value :  3.52502e-05
 Reference value :  3.52502e-05
 Reference value :  3.52504e-05
 Reference value :  3.52510e-05
 Reference value :  3.52519e-05
 Reference value :  3.52530e-05
 Reference value :  3.52540e-05
 Reference value :  3.52552e-05
 Reference value :  3.52589e-05
 Reference value :  3.52867e-05
 Reference value :  3.54872e-05
 Reference value :  3.55001e-05
 Reference value :  3.55002e-05
 Reference value :  3.55008e-05
 Reference value :  3.55020e-05
 Reference value :  3.55034e-05
 Reference value :  3.55062e-05
 Reference value :  3.55086e-05
 Reference value :  3.55205e-05
 Reference value :  3.56515e-05
 Reference value :  3.57502e-05
 Reference value :  3.57502e-05
 Reference value :  3.57504e-05
 Reference value :  3.57514e-05
 Reference value :  3.57534e-05
 Reference value :  3.57558e-05
 Reference value :  3.57636e-05
 Reference value :  3.60000e-05
 Reference value :  3.60007e-05
 Reference value :  3.60029e-05
 Reference value :  3.60050e-05
 Reference value :  3.60061e-05
 Reference value :  3.60092e-05
 Reference value :  3.60120e-05
 Reference value :  3.60140e-05
 Reference value :  3.60174e-05
 Reference value :  3.60206e-05
 Reference value :  3.60318e-05
 Reference value :  3.60434e-05
 Reference value :  3.60525e-05
 Reference value :  3.60682e-05
 Reference value :  3.61248e-05
 Reference value :  3.62501e-05
 Reference value :  3.62502e-05
 Reference value :  3.62503e-05
 Reference value :  3.62510e-05
 Reference value :  3.62519e-05
 Reference value :  3.62534e-05
 Reference value :  3.62552e-05
 Reference value :  3.62587e-05
 Reference value :  3.62846e-05
 Reference value :  3.65000e-05
 Reference value :  3.65001e-05
 Reference value :  3.65002e-05
 Reference value :  3.65003e-05
 Reference value :  3.65008e-05
 Reference value :  3.65015e-05
 Reference value :  3.65028e-05
 Reference value :  3.65039e-05
 Reference value :  3.65054e-05
 Reference value :  3.65066e-05
 Reference value :  3.65075e-05
 Reference value :  3.65103e-05
 Reference value :  3.65222e-05
 Reference value :  3.66432e-05
 Reference value :  3.67501e-05
 Reference value :  3.67502e-05
 Reference value :  3.67503e-05
 Reference value :  3.67510e-05
 Reference value :  3.67519e-05
 Reference value :  3.67530e-05
 Reference value :  3.67540e-05
 Reference value :  3.67550e-05
 Reference value :  3.67558e-05
 Reference value :  3.67575e-05
 Reference value :  3.67596e-05
 Reference value :  3.67636e-05
 Reference value :  3.67749e-05
 Reference value :  3.68199e-05
 Reference value :  3.69999e-05
 Reference value :  3.70000e-05
 Reference value :  3.70001e-05
 Reference value :  3.70001e-05
 Reference value :  3.70002e-05
 Reference value :  3.70003e-05
 Reference value :  3.70008e-05
 Reference value :  3.70016e-05
 Reference value :  3.70024e-05
 Reference value :  3.70029e-05
 Reference value :  3.70039e-05
 Reference value :  3.70048e-05
 Reference value :  3.70066e-05
 Reference value :  3.70084e-05
 Reference value :  3.70102e-05
 Reference value :  3.70119e-05
 Reference value :  3.70145e-05
 Reference value :  3.70165e-05
 Reference value :  3.70253e-05
 Reference value :  3.70501e-05
 Reference value :  3.70651e-05
 Reference value :  3.70761e-05
 Reference value :  3.71080e-05
 Reference value :  3.71932e-05
 Reference value :  3.72501e-05
 Reference value :  3.72502e-05
 Reference value :  3.72504e-05
 Reference value :  3.72514e-05
 Reference value :  3.72530e-05
 Reference value :  3.72540e-05
 Reference value :  3.72552e-05
 Reference value :  3.72589e-05
 Reference value :  3.72867e-05
 Reference value :  3.75000e-05
 Reference value :  3.75001e-05
 Reference value :  3.75002e-05
 Reference value :  3.75005e-05
 Reference value :  3.75012e-05
 Reference value :  3.75020e-05
 Reference value :  3.75029e-05
 Reference value :  3.75040e-05
 Reference value :  3.75055e-05
 Reference value :  3.75069e-05
 Reference value :  3.75087e-05
 Reference value :  3.75155e-05
 Reference value :  3.75826e-05
 Reference value :  3.77501e-05
 Reference value :  3.77502e-05
 Reference value :  3.77503e-05
 Reference value :  3.77510e-05
 Reference value :  3.77519e-05
 Reference value :  3.77530e-05
 Reference value :  3.77534e-05
 Reference value :  3.77545e-05
 Reference value :  3.77558e-05
 Reference value :  3.77603e-05
 Reference value :  3.77822e-05
 Reference value :  3.79557e-05
 Reference value :  3.80000e-05
 Reference value :  3.80001e-05
 Reference value :  3.80002e-05
 Reference value :  3.80008e-05
 Reference value :  3.80016e-05
 Reference value :  3.80029e-05
 Reference value :  3.80040e-05
 Reference value :  3.80050e-05
 Reference value :  3.80071e-05
 Reference value :  3.80112e-05
 Reference value :  3.80132e-05
 Reference value :  3.80152e-05
 Reference value :  3.80191e-05
 Reference value :  3.80277e-05
 Reference value :  3.80348e-05
 Reference value :  3.80406e-05
 Reference value :  3.80469e-05
 Reference value :  3.80665e-05
 Reference value :  3.81138e-05
 Reference value :  3.82501e-05
 Reference value :  3.82503e-05
 Reference value :  3.82510e-05
 Reference value :  3.82530e-05
 Reference value :  3.82553e-05
 Reference value :  3.82615e-05
 Reference value :  3.83134e-05
 Reference value :  3.85000e-05
 Reference value :  3.85004e-05
 Reference value :  3.85014e-05
 Reference value :  3.85028e-05
 Reference value :  3.85046e-05
 Reference value :  3.85060e-05
 Reference value :  3.85084e-05
 Reference value :  3.85102e-05
 Reference value :  3.85136e-05
 Reference value :  3.85933e-05
 Reference value :  3.87501e-05
 Reference value :  3.87502e-05
 Reference value :  3.87503e-05
 Reference value :  3.87507e-05
 Reference value :  3.87514e-05
 Reference value :  3.87530e-05
 Reference value :  3.87534e-05
 Reference value :  3.87545e-05
 Reference value :  3.87558e-05
 Reference value :  3.87584e-05
 Reference value :  3.87636e-05
 Reference value :  3.88791e-05
 Reference value :  3.90000e-05
 Reference value :  3.90002e-05
 Reference value :  3.90008e-05
 Reference value :  3.90016e-05
 Reference value :  3.90029e-05
 Reference value :  3.90039e-05
 Reference value :  3.90048e-05
 Reference value :  3.90066e-05
 Reference value :  3.90084e-05
 Reference value :  3.90102e-05
 Reference value :  3.90119e-05
 Reference value :  3.90136e-05
 Reference value :  3.90163e-05
 Reference value :  3.90238e-05
 Reference value :  3.90348e-05
 Reference value :  3.90400e-05
 Reference value :  3.90448e-05
 Reference value :  3.90702e-05
 Reference value :  3.91830e-05
 Reference value :  3.92347e-05
 Reference value :  3.92501e-05
 Reference value :  3.92502e-05
 Reference value :  3.92502e-05
 Reference value :  3.92507e-05
 Reference value :  3.92519e-05
 Reference value :  3.92530e-05
 Reference value :  3.92545e-05
 Reference value :  3.92587e-05
 Reference value :  3.93122e-05
 Reference value :  3.93833e-05
 Reference value :  3.95000e-05
 Reference value :  3.95001e-05
 Reference value :  3.95003e-05
 Reference value :  3.95012e-05
 Reference value :  3.95023e-05
 Reference value :  3.95033e-05
 Reference value :  3.95053e-05
 Reference value :  3.95066e-05
 Reference value :  3.95084e-05
 Reference value :  3.95102e-05
 Reference value :  3.95223e-05
 Reference value :  3.96476e-05
 Reference value :  3.97501e-05
 Reference value :  3.97502e-05
 Reference value :  3.97503e-05
 Reference value :  3.97510e-05
 Reference value :  3.97519e-05
 Reference value :  3.97534e-05
 Reference value :  3.97550e-05
 Reference value :  3.97566e-05
 Reference value :  3.97596e-05
 Reference value :  3.97747e-05
 Reference value :  3.99965e-05
 Reference value :  4.00001e-05
 Reference value :  4.00002e-05
 Reference value :  4.00005e-05
 Reference value :  4.00016e-05
 Reference value :  4.00029e-05
 Reference value :  4.00044e-05
 Reference value :  4.00059e-05
 Reference value :  4.00084e-05
 Reference value :  4.00102e-05
 Reference value :  4.00120e-05
 Reference value :  4.00145e-05
 Reference value :  4.00176e-05
 Reference value :  4.00213e-05
 Reference value :  4.00241e-05
 Reference value :  4.00339e-05
 Reference value :  4.00724e-05
 Reference value :  4.02501e-05
 Reference value :  4.02502e-05
 Reference value :  4.02503e-05
 Reference value :  4.02507e-05
 Reference value :  4.02514e-05
 Reference value :  4.02530e-05
 Reference value :  4.02540e-05
 Reference value :  4.02552e-05
 Reference value :  4.02616e-05
 Reference value :  4.03151e-05
 Reference value :  4.05000e-05
 Reference value :  4.05001e-05
 Reference value :  4.05002e-05
 Reference value :  4.05005e-05
 Reference value :  4.05012e-05
 Reference value :  4.05020e-05
 Reference value :  4.05029e-05
 Reference value :  4.05040e-05
 Reference value :  4.05055e-05
 Reference value :  4.05062e-05
 Reference value :  4.05077e-05
 Reference value :  4.05109e-05
 Reference value :  4.05296e-05
 Reference value :  4.07501e-05
 Reference value :  4.07502e-05
 Reference value :  4.07503e-05
 Reference value :  4.07507e-05
 Reference value :  4.07514e-05
 Reference value :  4.07530e-05
 Reference value :  4.07534e-05
 Reference value :  4.07545e-05
 Reference value :  4.07558e-05
 Reference value :  4.07636e-05
 Reference value :  4.08570e-05
 Reference value :  4.10007e-05
 Reference value :  4.10030e-05
 Reference value :  4.10043e-05
 Reference value :  4.10056e-05
 Reference value :  4.10080e-05
 Reference value :  4.10094e-05
 Reference value :  4.10120e-05
 Reference value :  4.10138e-05
 Reference value :  4.10159e-05
 Reference value :  4.10203e-05
 Reference value :  4.10281e-05
 Reference value :  4.10556e-05
 Reference value :  4.10724e-05
 Reference value :  4.10992e-05
 Reference value :  4.11475e-05
 Reference value :  4.11866e-05
 Reference value :  4.12427e-05
 Reference value :  4.12501e-05
 Reference value :  4.12502e-05
 Reference value :  4.12504e-05
 Reference value :  4.12514e-05
 Reference value :  4.12529e-05
 Reference value :  4.12539e-05
 Reference value :  4.12558e-05
 Reference value :  4.12831e-05
 Reference value :  4.15000e-05
 Reference value :  4.15001e-05
 Reference value :  4.15005e-05
 Reference value :  4.15016e-05
 Reference value :  4.15029e-05
 Reference value :  4.15047e-05
 Reference value :  4.15062e-05
 Reference value :  4.15077e-05
 Reference value :  4.15109e-05
 Reference value :  4.15287e-05
 Reference value :  4.17501e-05
 Reference value :  4.17502e-05
 Reference value :  4.17503e-05
 Reference value :  4.17507e-05
 Reference value :  4.17514e-05
 Reference value :  4.17530e-05
 Reference value :  4.17540e-05
 Reference value :  4.17550e-05
 Reference value :  4.17566e-05
 Reference value :  4.17699e-05
 Reference value :  4.18578e-05
 Reference value :  4.20000e-05
 Reference value :  4.20001e-05
 Reference value :  4.20002e-05
 Reference value :  4.20003e-05
 Reference value :  4.20008e-05
 Reference value :  4.20016e-05
 Reference value :  4.20029e-05
 Reference value :  4.20045e-05
 Reference value :  4.20056e-05
 Reference value :  4.20072e-05
 Reference value :  4.20088e-05
 Reference value :  4.20226e-05
 Reference value :  4.21205e-05
 Reference value :  4.22501e-05
 Reference value :  4.22502e-05
 Reference value :  4.22503e-05
 Reference value :  4.22507e-05
 Reference value :  4.22514e-05
 Reference value :  4.22523e-05
 Reference value :  4.22536e-05
 Reference value :  4.22553e-05
 Reference value :  4.22577e-05
 Reference value :  4.22662e-05
 Reference value :  4.23217e-05
 Reference value :  4.25000e-05
 Reference value :  4.25000e-05
 Reference value :  4.25000e-05
 Reference value :  4.25001e-05
 Reference value :  4.25007e-05
 Reference value :  4.25024e-05
 Reference value :  4.25040e-05
 Reference value :  4.25055e-05
 Reference value :  4.25224e-05
 Reference value :  4.25263e-05
 Reference value :  4.25291e-05
 Reference value :  4.25317e-05
 Reference value :  4.25358e-05
 Reference value :  4.25422e-05
 Reference value :  4.25536e-05
 Reference value :  4.25777e-05
 Reference value :  4.26929e-05
 Reference value :  4.27501e-05
 Reference value :  4.27502e-05
 Reference value :  4.27503e-05
 Reference value :  4.27510e-05
 Reference value :  4.27519e-05
 Reference value :  4.27530e-05
 Reference value :  4.27534e-05
 Reference value :  4.27552e-05
 Reference value :  4.27587e-05
 Reference value :  4.27850e-05
 Reference value :  4.29732e-05
 Reference value :  4.30001e-05
 Reference value :  4.30002e-05
 Reference value :  4.30012e-05
 Reference value :  4.30024e-05
 Reference value :  4.30040e-05
 Reference value :  4.30065e-05
 Reference value :  4.30089e-05
 Reference value :  4.30113e-05
 Reference value :  4.30156e-05
 Reference value :  4.30498e-05
 Reference value :  4.32501e-05
 Reference value :  4.32502e-05
 Reference value :  4.32503e-05
 Reference value :  4.32510e-05
 Reference value :  4.32519e-05
 Reference value :  4.32534e-05
 Reference value :  4.32550e-05
 Reference value :  4.32602e-05
 Reference value :  4.33570e-05
 Reference value :  4.35007e-05
 Reference value :  4.35030e-05
 Reference value :  4.35043e-05
 Reference value :  4.35056e-05
 Reference value :  4.35095e-05
 Reference value :  4.35121e-05
 Reference value :  4.35131e-05
 Reference value :  4.35148e-05
 Reference value :  4.35170e-05
 Reference value :  4.35222e-05
 Reference value :  4.35489e-05
 Reference value :  4.36925e-05
 Reference value :  4.37501e-05
 Reference value :  4.37502e-05
 Reference value :  4.37503e-05
 Reference value :  4.37504e-05
 Reference value :  4.37510e-05
 Reference value :  4.37514e-05
 Reference value :  4.37529e-05
 Reference value :  4.37539e-05
 Reference value :  4.37551e-05
 Reference value :  4.37586e-05
 Reference value :  4.37835e-05
 Reference value :  4.40000e-05
 Reference value :  4.40001e-05
 Reference value :  4.40001e-05
 Reference value :  4.40003e-05
 Reference value :  4.40008e-05
 Reference value :  4.40016e-05
 Reference value :  4.40029e-05
 Reference value :  4.40047e-05
 Reference value :  4.40061e-05
 Reference value :  4.40077e-05
 Reference value :  4.40107e-05
 Reference value :  4.40250e-05
 Reference value :  4.41916e-05
 Reference value :  4.42502e-05
 Reference value :  4.42503e-05
 Reference value :  4.42510e-05
 Reference value :  4.42523e-05
 Reference value :  4.42534e-05
 Reference value :  4.42545e-05
 Reference value :  4.42558e-05
 Reference value :  4.42635e-05
 Reference value :  4.43559e-05
 Reference value :  4.45000e-05
 Reference value :  4.45001e-05
 Reference value :  4.45002e-05
 Reference value :  4.45008e-05
 Reference value :  4.45016e-05
 Reference value :  4.45029e-05
 Reference value :  4.45045e-05
 Reference value :  4.45070e-05
 Reference value :  4.45111e-05
 Reference value :  4.45133e-05
 Reference value :  4.45163e-05
 Reference value :  4.45191e-05
 Reference value :  4.45289e-05
 Reference value :  4.45400e-05
 Reference value :  4.45509e-05
 Reference value :  4.45652e-05
 Reference value :  4.45949e-05
 Reference value :  4.46512e-05
 Reference value :  4.47501e-05
 Reference value :  4.47502e-05
 Reference value :  4.47504e-05
 Reference value :  4.47510e-05
 Reference value :  4.47519e-05
 Reference value :  4.47530e-05
 Reference value :  4.47534e-05
 Reference value :  4.47545e-05
 Reference value :  4.47559e-05
 Reference value :  4.47614e-05
 Reference value :  4.47849e-05
 Reference value :  4.49735e-05
 Reference value :  4.50000e-05
 Reference value :  4.50001e-05
 Reference value :  4.50001e-05
 Reference value :  4.50003e-05
 Reference value :  4.50008e-05
 Reference value :  4.50015e-05
 Reference value :  4.50023e-05
 Reference value :  4.50028e-05
 Reference value :  4.50039e-05
 Reference value :  4.50053e-05
 Reference value :  4.50060e-05
 Reference value :  4.50075e-05
 Reference value :  4.50092e-05
 Reference value :  4.50114e-05
 Reference value :  4.50225e-05
 Reference value :  4.50842e-05
 Reference value :  4.52501e-05
 Reference value :  4.52502e-05
 Reference value :  4.52502e-05
 Reference value :  4.52503e-05
 Reference value :  4.52507e-05
 Reference value :  4.52514e-05
 Reference value :  4.52523e-05
 Reference value :  4.52534e-05
 Reference value :  4.52545e-05
 Reference value :  4.52558e-05
 Reference value :  4.52575e-05
 Reference value :  4.52596e-05
 Reference value :  4.52672e-05
 Reference value :  4.53182e-05
 Reference value :  4.55000e-05
 Reference value :  4.55001e-05
 Reference value :  4.55002e-05
 Reference value :  4.55005e-05
 Reference value :  4.55012e-05
 Reference value :  4.55020e-05
 Reference value :  4.55029e-05
 Reference value :  4.55039e-05
 Reference value :  4.55048e-05
 Reference value :  4.55066e-05
 Reference value :  4.55084e-05
 Reference value :  4.55102e-05
 Reference value :  4.55119e-05
 Reference value :  4.55136e-05
 Reference value :  4.55155e-05
 Reference value :  4.55177e-05
 Reference value :  4.55254e-05
 Reference value :  4.55497e-05
 Reference value :  4.55582e-05
 Reference value :  4.55629e-05
 Reference value :  4.55731e-05
 Reference value :  4.55926e-05
 Reference value :  4.56373e-05
 Reference value :  4.57490e-05
 Reference value :  4.57501e-05
 Reference value :  4.57502e-05
 Reference value :  4.57503e-05
 Reference value :  4.57507e-05
 Reference value :  4.57514e-05
 Reference value :  4.57523e-05
 Reference value :  4.57534e-05
 Reference value :  4.57546e-05
 Reference value :  4.57574e-05
 Reference value :  4.57652e-05
 Reference value :  4.58153e-05
 Reference value :  4.60000e-05
 Reference value :  4.60002e-05
 Reference value :  4.60009e-05
 Reference value :  4.60019e-05
 Reference value :  4.60034e-05
 Reference value :  4.60056e-05
 Reference value :  4.60071e-05
 Reference value :  4.60087e-05
 Reference value :  4.60127e-05
 Reference value :  4.60593e-05
 Reference value :  4.62501e-05
 Reference value :  4.62502e-05
 Reference value :  4.62503e-05
 Reference value :  4.62510e-05
 Reference value :  4.62519e-05
 Reference value :  4.62534e-05
 Reference value :  4.62545e-05
 Reference value :  4.62582e-05
 Reference value :  4.64549e-05
 Reference value :  4.65001e-05
 Reference value :  4.65008e-05
 Reference value :  4.65024e-05
 Reference value :  4.65045e-05
 Reference value :  4.65085e-05
 Reference value :  4.65122e-05
 Reference value :  4.65163e-05
 Reference value :  4.65319e-05
 Reference value :  4.65410e-05
 Reference value :  4.65661e-05
 Reference value :  4.67501e-05
 Reference value :  4.67502e-05
 Reference value :  4.67507e-05
 Reference value :  4.67519e-05
 Reference value :  4.67534e-05
 Reference value :  4.67559e-05
 Reference value :  4.67615e-05
 Reference value :  4.67857e-05
 Reference value :  4.69797e-05
 Reference value :  4.70000e-05
 Reference value :  4.70001e-05
 Reference value :  4.70002e-05
 Reference value :  4.70005e-05
 Reference value :  4.70012e-05
 Reference value :  4.70019e-05
 Reference value :  4.70028e-05
 Reference value :  4.70039e-05
 Reference value :  4.70054e-05
 Reference value :  4.70060e-05
 Reference value :  4.70075e-05
 Reference value :  4.70103e-05
 Reference value :  4.70221e-05
 Reference value :  4.71426e-05
 Reference value :  4.72501e-05
 Reference value :  4.72502e-05
 Reference value :  4.72504e-05
 Reference value :  4.72514e-05
 Reference value :  4.72523e-05
 Reference value :  4.72534e-05
 Reference value :  4.72545e-05
 Reference value :  4.72558e-05
 Reference value :  4.72575e-05
 Reference value :  4.72596e-05
 Reference value :  4.72674e-05
 Reference value :  4.73198e-05
 Reference value :  4.75000e-05
 Reference value :  4.75001e-05
 Reference value :  4.75002e-05
 Reference value :  4.75008e-05
 Reference value :  4.75020e-05
 Reference value :  4.75029e-05
 Reference value :  4.75044e-05
 Reference value :  4.75059e-05
 Reference value :  4.75084e-05
 Reference value :  4.75111e-05
 Reference value :  4.75136e-05
 Reference value :  4.75191e-05
 Reference value :  4.75304e-05
 Reference value :  4.75393e-05
 Reference value :  4.75698e-05
 Reference value :  4.77501e-05
 Reference value :  4.77502e-05
 Reference value :  4.77503e-05
 Reference value :  4.77514e-05
 Reference value :  4.77530e-05
 Reference value :  4.77540e-05
 Reference value :  4.77575e-05
 Reference value :  4.77733e-05
 Reference value :  4.77852e-05
 Reference value :  4.78168e-05
 Reference value :  4.78677e-05
 Reference value :  4.79341e-05
 Reference value :  4.80000e-05
 Reference value :  4.80001e-05
 Reference value :  4.80002e-05
 Reference value :  4.80008e-05
 Reference value :  4.80019e-05
 Reference value :  4.80033e-05
 Reference value :  4.80053e-05
 Reference value :  4.80066e-05
 Reference value :  4.80084e-05
 Reference value :  4.80103e-05
 Reference value :  4.80223e-05
 Reference value :  4.82501e-05
 Reference value :  4.82502e-05
 Reference value :  4.82503e-05
 Reference value :  4.82514e-05
 Reference value :  4.82530e-05
 Reference value :  4.82534e-05
 Reference value :  4.82545e-05
 Reference value :  4.82558e-05
[...]
 Reference value :  1.67003e-04
 Reference value :  1.67004e-04
 Reference value :  1.67006e-04
 Reference value :  1.67006e-04
 Reference value :  1.67008e-04
 Reference value :  1.67010e-04
 Reference value :  1.67015e-04
 Reference value :  1.67047e-04
 Reference value :  1.67250e-04
 Reference value :  1.67250e-04
 Reference value :  1.67250e-04
 Reference value :  1.67251e-04
 Reference value :  1.67252e-04
 Reference value :  1.67253e-04
 Reference value :  1.67253e-04
 Reference value :  1.67254e-04
 Reference value :  1.67256e-04
 Reference value :  1.67260e-04
 Reference value :  1.67282e-04
 Reference value :  1.67500e-04
 Reference value :  1.67500e-04
 Reference value :  1.67500e-04
 Reference value :  1.67500e-04
 Reference value :  1.67501e-04
 Reference value :  1.67502e-04
 Reference value :  1.67503e-04
 Reference value :  1.67504e-04
 Reference value :  1.67506e-04
 Reference value :  1.67510e-04
 Reference value :  1.67512e-04
 Reference value :  1.67515e-04
 Reference value :  1.67519e-04
 Reference value :  1.67532e-04
 Reference value :  1.67540e-04
 Reference value :  1.67547e-04
 Reference value :  1.67572e-04
 Reference value :  1.67626e-04
 Reference value :  1.67681e-04
 Reference value :  1.67729e-04
 Reference value :  1.67750e-04
 Reference value :  1.67750e-04
 Reference value :  1.67750e-04
 Reference value :  1.67751e-04
 Reference value :  1.67752e-04
 Reference value :  1.67753e-04
 Reference value :  1.67753e-04
 Reference value :  1.67755e-04
 Reference value :  1.67757e-04
 Reference value :  1.67765e-04
 Reference value :  1.67815e-04
 Reference value :  1.68000e-04
 Reference value :  1.68000e-04
 Reference value :  1.68000e-04
 Reference value :  1.68000e-04
 Reference value :  1.68001e-04
 Reference value :  1.68002e-04
 Reference value :  1.68002e-04
 Reference value :  1.68003e-04
 Reference value :  1.68004e-04
 Reference value :  1.68006e-04
 Reference value :  1.68007e-04
 Reference value :  1.68009e-04
 Reference value :  1.68011e-04
 Reference value :  1.68020e-04
 Reference value :  1.68080e-04
 Reference value :  1.68250e-04
 Reference value :  1.68250e-04
 Reference value :  1.68250e-04
 Reference value :  1.68251e-04
 Reference value :  1.68251e-04
 Reference value :  1.68252e-04
 Reference value :  1.68253e-04
 Reference value :  1.68253e-04
 Reference value :  1.68254e-04
 Reference value :  1.68256e-04
 Reference value :  1.68260e-04
 Reference value :  1.68282e-04
 Reference value :  1.68457e-04
 Reference value :  1.68500e-04
 Reference value :  1.68500e-04
 Reference value :  1.68500e-04
 Reference value :  1.68500e-04
 Reference value :  1.68501e-04
 Reference value :  1.68501e-04
 Reference value :  1.68502e-04
 Reference value :  1.68502e-04
 Reference value :  1.68503e-04
 Reference value :  1.68504e-04
 Reference value :  1.68506e-04
 Reference value :  1.68507e-04
 Reference value :  1.68510e-04
 Reference value :  1.68511e-04
 Reference value :  1.68512e-04
 Reference value :  1.68514e-04
 Reference value :  1.68516e-04
 Reference value :  1.68521e-04
 Reference value :  1.68535e-04
 Reference value :  1.68546e-04
 Reference value :  1.68558e-04
 Reference value :  1.68579e-04
 Reference value :  1.68620e-04
 Reference value :  1.68710e-04
 Reference value :  1.68750e-04
 Reference value :  1.68750e-04
 Reference value :  1.68750e-04
 Reference value :  1.68750e-04
 Reference value :  1.68750e-04
 Reference value :  1.68751e-04
 Reference value :  1.68751e-04
 Reference value :  1.68752e-04
 Reference value :  1.68753e-04
 Reference value :  1.68753e-04
 Reference value :  1.68755e-04
 Reference value :  1.68756e-04
 Reference value :  1.68759e-04
 Reference value :  1.68772e-04
 Reference value :  1.68869e-04
 Reference value :  1.69000e-04
 Reference value :  1.69000e-04
 Reference value :  1.69000e-04
 Reference value :  1.69000e-04
 Reference value :  1.69000e-04
 Reference value :  1.69001e-04
 Reference value :  1.69002e-04
 Reference value :  1.69002e-04
 Reference value :  1.69003e-04
 Reference value :  1.69004e-04
 Reference value :  1.69005e-04
 Reference value :  1.69006e-04
 Reference value :  1.69007e-04
 Reference value :  1.69009e-04
 Reference value :  1.69010e-04
 Reference value :  1.69017e-04
 Reference value :  1.69032e-04
 Reference value :  1.69143e-04
 Reference value :  1.69250e-04
 Reference value :  1.69250e-04
 Reference value :  1.69250e-04
 Reference value :  1.69250e-04
 Reference value :  1.69251e-04
 Reference value :  1.69251e-04
 Reference value :  1.69252e-04
 Reference value :  1.69253e-04
 Reference value :  1.69254e-04
 Reference value :  1.69256e-04
 Reference value :  1.69258e-04
 Reference value :  1.69260e-04
 Reference value :  1.69267e-04
 Reference value :  1.69290e-04
 Reference value :  1.69381e-04
 Reference value :  1.69500e-04
 Reference value :  1.69500e-04
 Reference value :  1.69500e-04
 Reference value :  1.69500e-04
 Reference value :  1.69501e-04
 Reference value :  1.69502e-04
 Reference value :  1.69502e-04
 Reference value :  1.69503e-04
 Reference value :  1.69504e-04
 Reference value :  1.69505e-04
 Reference value :  1.69506e-04
 Reference value :  1.69507e-04
 Reference value :  1.69509e-04
 Reference value :  1.69511e-04
 Reference value :  1.69512e-04
 Reference value :  1.69514e-04
 Reference value :  1.69519e-04
 Reference value :  1.69537e-04
 Reference value :  1.69665e-04
 Reference value :  1.69750e-04
 Reference value :  1.69750e-04
 Reference value :  1.69750e-04
 Reference value :  1.69751e-04
 Reference value :  1.69753e-04
 Reference value :  1.69755e-04
 Reference value :  1.69759e-04
 Reference value :  1.69775e-04
 Reference value :  1.69882e-04
 Reference value :  1.70000e-04
 Reference value :  1.70000e-04
 Reference value :  1.70000e-04
 Reference value :  1.70000e-04
 Reference value :  1.70000e-04
 Reference value :  1.70000e-04
 Reference value :  1.70001e-04
 Reference value :  1.70002e-04
 Reference value :  1.70003e-04
 Reference value :  1.70004e-04
 Reference value :  1.70006e-04
 Reference value :  1.70012e-04
 Reference value :  1.70022e-04
 Reference value :  1.70026e-04
 Reference value :  1.70029e-04
 Reference value :  1.70032e-04
 Reference value :  1.70034e-04
 Reference value :  1.70038e-04
 Reference value :  1.70042e-04
 Reference value :  1.70049e-04
 Reference value :  1.70065e-04
 Reference value :  1.70109e-04
 Reference value :  1.70250e-04
 Reference value :  1.70250e-04
 Reference value :  1.70250e-04
 Reference value :  1.70251e-04
 Reference value :  1.70251e-04
 Reference value :  1.70252e-04
 Reference value :  1.70253e-04
 Reference value :  1.70255e-04
 Reference value :  1.70257e-04
 Reference value :  1.70265e-04
 Reference value :  1.70311e-04
 Reference value :  1.70500e-04
 Reference value :  1.70500e-04
 Reference value :  1.70500e-04
 Reference value :  1.70500e-04
 Reference value :  1.70500e-04
 Reference value :  1.70501e-04
 Reference value :  1.70502e-04
 Reference value :  1.70502e-04
 Reference value :  1.70503e-04
 Reference value :  1.70505e-04
 Reference value :  1.70507e-04
 Reference value :  1.70509e-04
 Reference value :  1.70512e-04
 Reference value :  1.70514e-04
 Reference value :  1.70522e-04
 Reference value :  1.70580e-04
 Reference value :  1.70750e-04
 Reference value :  1.70750e-04
 Reference value :  1.70750e-04
 Reference value :  1.70751e-04
 Reference value :  1.70752e-04
 Reference value :  1.70753e-04
 Reference value :  1.70754e-04
 Reference value :  1.70756e-04
 Reference value :  1.70764e-04
 Reference value :  1.70857e-04
 Reference value :  1.71000e-04
 Reference value :  1.71000e-04
 Reference value :  1.71000e-04
 Reference value :  1.71001e-04
 Reference value :  1.71002e-04
 Reference value :  1.71002e-04
 Reference value :  1.71003e-04
 Reference value :  1.71004e-04
 Reference value :  1.71006e-04
 Reference value :  1.71008e-04
 Reference value :  1.71011e-04
 Reference value :  1.71013e-04
 Reference value :  1.71015e-04
 Reference value :  1.71017e-04
 Reference value :  1.71024e-04
 Reference value :  1.71049e-04
 Reference value :  1.71188e-04
 Reference value :  1.71250e-04
 Reference value :  1.71250e-04
 Reference value :  1.71250e-04
 Reference value :  1.71251e-04
 Reference value :  1.71253e-04
 Reference value :  1.71255e-04
 Reference value :  1.71262e-04
 Reference value :  1.71373e-04
 Reference value :  1.71500e-04
 Reference value :  1.71500e-04
 Reference value :  1.71501e-04
 Reference value :  1.71502e-04
 Reference value :  1.71503e-04
 Reference value :  1.71506e-04
 Reference value :  1.71508e-04
 Reference value :  1.71515e-04
 Reference value :  1.71750e-04
 Reference value :  1.71750e-04
 Reference value :  1.71751e-04
 Reference value :  1.71751e-04
 Reference value :  1.71753e-04
 Reference value :  1.71754e-04
 Reference value :  1.71756e-04
 Reference value :  1.71770e-04
 Reference value :  1.72000e-04
 Reference value :  1.72000e-04
 Reference value :  1.72000e-04
 Reference value :  1.72001e-04
 Reference value :  1.72002e-04
 Reference value :  1.72003e-04
 Reference value :  1.72005e-04
 Reference value :  1.72007e-04
 Reference value :  1.72011e-04
 Reference value :  1.72013e-04
 Reference value :  1.72015e-04
 Reference value :  1.72019e-04
 Reference value :  1.72035e-04
 Reference value :  1.72048e-04
 Reference value :  1.72060e-04
 Reference value :  1.72066e-04
 Reference value :  1.72083e-04
 Reference value :  1.72128e-04
 Reference value :  1.72250e-04
 Reference value :  1.72250e-04
 Reference value :  1.72251e-04
 Reference value :  1.72253e-04
 Reference value :  1.72256e-04
 Reference value :  1.72313e-04
 Reference value :  1.72500e-04
 Reference value :  1.72500e-04
 Reference value :  1.72501e-04
 Reference value :  1.72502e-04
 Reference value :  1.72503e-04
 Reference value :  1.72506e-04
 Reference value :  1.72507e-04
 Reference value :  1.72510e-04
 Reference value :  1.72532e-04
 Reference value :  1.72750e-04
 Reference value :  1.72750e-04
 Reference value :  1.72750e-04
 Reference value :  1.72751e-04
 Reference value :  1.72751e-04
 Reference value :  1.72753e-04
 Reference value :  1.72754e-04
 Reference value :  1.72755e-04
 Reference value :  1.72757e-04
 Reference value :  1.72760e-04
 Reference value :  1.72775e-04
 Reference value :  1.73000e-04
 Reference value :  1.73000e-04
 Reference value :  1.73000e-04
 Reference value :  1.73001e-04
 Reference value :  1.73001e-04
 Reference value :  1.73002e-04
 Reference value :  1.73004e-04
 Reference value :  1.73005e-04
 Reference value :  1.73008e-04
 Reference value :  1.73011e-04
 Reference value :  1.73015e-04
 Reference value :  1.73017e-04
 Reference value :  1.73021e-04
 Reference value :  1.73040e-04
 Reference value :  1.73046e-04
 Reference value :  1.73050e-04
 Reference value :  1.73060e-04
 Reference value :  1.73085e-04
 Reference value :  1.73160e-04
 Reference value :  1.73250e-04
 Reference value :  1.73250e-04
 Reference value :  1.73250e-04
 Reference value :  1.73251e-04
 Reference value :  1.73251e-04
 Reference value :  1.73253e-04
 Reference value :  1.73253e-04
 Reference value :  1.73255e-04
 Reference value :  1.73257e-04
 Reference value :  1.73265e-04
 Reference value :  1.73315e-04
 Reference value :  1.73500e-04
 Reference value :  1.73500e-04
 Reference value :  1.73500e-04
 Reference value :  1.73500e-04
 Reference value :  1.73501e-04
 Reference value :  1.73502e-04
 Reference value :  1.73503e-04
 Reference value :  1.73504e-04
 Reference value :  1.73506e-04
 Reference value :  1.73506e-04
 Reference value :  1.73508e-04
 Reference value :  1.73510e-04
 Reference value :  1.73516e-04
 Reference value :  1.73583e-04
 Reference value :  1.73750e-04
 Reference value :  1.73750e-04
 Reference value :  1.73750e-04
 Reference value :  1.73751e-04
 Reference value :  1.73752e-04
 Reference value :  1.73753e-04
 Reference value :  1.73754e-04
 Reference value :  1.73755e-04
 Reference value :  1.73757e-04
 Reference value :  1.73770e-04
 Reference value :  1.73956e-04
 Reference value :  1.74000e-04
 Reference value :  1.74000e-04
 Reference value :  1.74000e-04
 Reference value :  1.74001e-04
 Reference value :  1.74002e-04
 Reference value :  1.74003e-04
 Reference value :  1.74004e-04
 Reference value :  1.74006e-04
 Reference value :  1.74008e-04
 Reference value :  1.74011e-04
 Reference value :  1.74013e-04
 Reference value :  1.74015e-04
 Reference value :  1.74019e-04
 Reference value :  1.74034e-04
 Reference value :  1.74045e-04
 Reference value :  1.74070e-04
 Reference value :  1.74125e-04
 Reference value :  1.74250e-04
 Reference value :  1.74250e-04
 Reference value :  1.74251e-04
 Reference value :  1.74251e-04
 Reference value :  1.74253e-04
 Reference value :  1.74255e-04
 Reference value :  1.74259e-04
 Reference value :  1.74313e-04
 Reference value :  1.74500e-04
 Reference value :  1.74500e-04
 Reference value :  1.74500e-04
 Reference value :  1.74501e-04
 Reference value :  1.74502e-04
 Reference value :  1.74503e-04
 Reference value :  1.74505e-04
 Reference value :  1.74506e-04
 Reference value :  1.74507e-04
 Reference value :  1.74510e-04
 Reference value :  1.74532e-04
 Reference value :  1.74750e-04
 Reference value :  1.74750e-04
 Reference value :  1.74751e-04
 Reference value :  1.74752e-04
 Reference value :  1.74753e-04
 Reference value :  1.74753e-04
 Reference value :  1.74754e-04
 Reference value :  1.74756e-04
 Reference value :  1.74758e-04
 Reference value :  1.74760e-04
 Reference value :  1.74767e-04
 Reference value :  1.74820e-04
 Reference value :  1.75000e-04
 Reference value :  1.75000e-04
 Reference value :  1.75000e-04
 Reference value :  1.75000e-04
 Reference value :  1.75000e-04
 Reference value :  1.75001e-04
 Reference value :  1.75001e-04
 Reference value :  1.75002e-04
 Reference value :  1.75002e-04
 Reference value :  1.75003e-04
 Reference value :  1.75004e-04
 Reference value :  1.75005e-04
 Reference value :  1.75007e-04
 Reference value :  1.75008e-04
 Reference value :  1.75009e-04
 Reference value :  1.75010e-04
 Reference value :  1.75012e-04
 Reference value :  1.75014e-04
 Reference value :  1.75017e-04
 Reference value :  1.75019e-04
 Reference value :  1.75020e-04
 Reference value :  1.75023e-04
 Reference value :  1.75028e-04
 Reference value :  1.75043e-04
 Reference value :  1.75074e-04
 Reference value :  1.75218e-04
 Reference value :  1.75250e-04
 Reference value :  1.75250e-04
 Reference value :  1.75250e-04
 Reference value :  1.75250e-04
 Reference value :  1.75251e-04
 Reference value :  1.75251e-04
 Reference value :  1.75252e-04
 Reference value :  1.75253e-04
 Reference value :  1.75255e-04
 Reference value :  1.75257e-04
 Reference value :  1.75265e-04
 Reference value :  1.75373e-04
 Reference value :  1.75500e-04
 Reference value :  1.75500e-04
 Reference value :  1.75500e-04
 Reference value :  1.75501e-04
 Reference value :  1.75502e-04
 Reference value :  1.75503e-04
 Reference value :  1.75504e-04
 Reference value :  1.75506e-04
 Reference value :  1.75506e-04
 Reference value :  1.75508e-04
 Reference value :  1.75510e-04
 Reference value :  1.75515e-04
 Reference value :  1.75547e-04
 Reference value :  1.75750e-04
 Reference value :  1.75750e-04
 Reference value :  1.75750e-04
 Reference value :  1.75750e-04
 Reference value :  1.75750e-04
 Reference value :  1.75751e-04
 Reference value :  1.75751e-04
 Reference value :  1.75752e-04
 Reference value :  1.75753e-04
 Reference value :  1.75754e-04
 Reference value :  1.75756e-04
 Reference value :  1.75760e-04
 Reference value :  1.75807e-04
 Reference value :  1.76000e-04
 Reference value :  1.76000e-04
 Reference value :  1.76000e-04
 Reference value :  1.76001e-04
 Reference value :  1.76001e-04
 Reference value :  1.76002e-04
 Reference value :  1.76003e-04
 Reference value :  1.76004e-04
 Reference value :  1.76005e-04
 Reference value :  1.76007e-04
 Reference value :  1.76011e-04
 Reference value :  1.76013e-04
 Reference value :  1.76015e-04
 Reference value :  1.76017e-04
 Reference value :  1.76024e-04
 Reference value :  1.76037e-04
 Reference value :  1.76048e-04
 Reference value :  1.76089e-04
 Reference value :  1.76124e-04
 Reference value :  1.76148e-04
 Reference value :  1.76241e-04
 Reference value :  1.76250e-04
 Reference value :  1.76250e-04
 Reference value :  1.76251e-04
 Reference value :  1.76251e-04
 Reference value :  1.76253e-04
 Reference value :  1.76254e-04
 Reference value :  1.76255e-04
 Reference value :  1.76259e-04
 Reference value :  1.76287e-04
 Reference value :  1.76500e-04
 Reference value :  1.76500e-04
 Reference value :  1.76500e-04
 Reference value :  1.76500e-04
 Reference value :  1.76501e-04
 Reference value :  1.76502e-04
 Reference value :  1.76503e-04
 Reference value :  1.76505e-04
 Reference value :  1.76506e-04
 Reference value :  1.76508e-04
 Reference value :  1.76511e-04
 Reference value :  1.76529e-04
 Reference value :  1.76750e-04
 Reference value :  1.76750e-04
 Reference value :  1.76750e-04
 Reference value :  1.76750e-04
 Reference value :  1.76751e-04
 Reference value :  1.76752e-04
 Reference value :  1.76753e-04
 Reference value :  1.76754e-04
 Reference value :  1.76756e-04
 Reference value :  1.76764e-04
 Reference value :  1.76857e-04
 Reference value :  1.77000e-04
 Reference value :  1.77000e-04
 Reference value :  1.77000e-04
 Reference value :  1.77001e-04
 Reference value :  1.77002e-04
 Reference value :  1.77003e-04
 Reference value :  1.77004e-04
 Reference value :  1.77005e-04
 Reference value :  1.77007e-04
 Reference value :  1.77011e-04
 Reference value :  1.77013e-04
 Reference value :  1.77015e-04
 Reference value :  1.77019e-04
 Reference value :  1.77030e-04
 Reference value :  1.77044e-04
 Reference value :  1.77059e-04
 Reference value :  1.77090e-04
 Reference value :  1.77154e-04
 Reference value :  1.77189e-04
 Reference value :  1.77240e-04
 Reference value :  1.77250e-04
 Reference value :  1.77250e-04
 Reference value :  1.77250e-04
 Reference value :  1.77251e-04
 Reference value :  1.77251e-04
 Reference value :  1.77252e-04
 Reference value :  1.77253e-04
 Reference value :  1.77255e-04
 Reference value :  1.77258e-04
 Reference value :  1.77266e-04
 Reference value :  1.77316e-04
 Reference value :  1.77490e-04
 Reference value :  1.77500e-04
 Reference value :  1.77500e-04
 Reference value :  1.77500e-04
 Reference value :  1.77500e-04
 Reference value :  1.77501e-04
 Reference value :  1.77502e-04
 Reference value :  1.77502e-04
 Reference value :  1.77503e-04
 Reference value :  1.77504e-04
 Reference value :  1.77506e-04
 Reference value :  1.77506e-04
 Reference value :  1.77508e-04
 Reference value :  1.77510e-04
 Reference value :  1.77515e-04
 Reference value :  1.77547e-04
 Reference value :  1.77750e-04
 Reference value :  1.77750e-04
 Reference value :  1.77750e-04
 Reference value :  1.77750e-04
 Reference value :  1.77751e-04
 Reference value :  1.77751e-04
 Reference value :  1.77752e-04
 Reference value :  1.77753e-04
 Reference value :  1.77754e-04
 Reference value :  1.77757e-04
 Reference value :  1.77782e-04
 Reference value :  1.78000e-04
 Reference value :  1.78000e-04
 Reference value :  1.78000e-04
 Reference value :  1.78001e-04
 Reference value :  1.78002e-04
 Reference value :  1.78003e-04
 Reference value :  1.78004e-04
 Reference value :  1.78005e-04
 Reference value :  1.78006e-04
 Reference value :  1.78008e-04
 Reference value :  1.78010e-04
 Reference value :  1.78023e-04
 Reference value :  1.78121e-04
 Reference value :  1.78250e-04
 Reference value :  1.78250e-04
 Reference value :  1.78250e-04
 Reference value :  1.78250e-04
 Reference value :  1.78251e-04
 Reference value :  1.78252e-04
 Reference value :  1.78254e-04
 Reference value :  1.78255e-04
 Reference value :  1.78259e-04
 Reference value :  1.78291e-04
No. of Data Rows : 25947
ngspice-44 done
