
Note: Compatibility modes selected: hs a


Circuit: ** sch_path: /home/audrey/cace/sar-adc-using-sky130-pdk/runs/run_2025-08-29_18-13-25/parameters/power/run_01/power_consumption.sch

option SCALE: Scale is set to 1e-06 for instance and model parameters
option SCALE: Scale is set to 1e-06 for instance and model parameters
option SCALE: Scale is set to 1e-06 for instance and model parameters
option SCALE: Scale is set to 1e-06 for instance and model parameters
Doing analysis at TEMP = 27.000000 and TNOM = 27.000000

Using KLU as Direct Linear Solver
Operating point simulation skipped by 'uic',
  now using transient initial conditions.
 Reference value :  5.00000e-12
 Reference value :  5.14000e-12
 Reference value :  5.98000e-12
 Reference value :  8.76417e-12
 Reference value :  1.64739e-11
 Reference value :  6.15025e-11
 Reference value :  1.92258e-10
 Reference value :  4.79781e-10
 Reference value :  5.17541e-10
 Reference value :  6.20440e-10
 Reference value :  1.02734e-09
 Reference value :  1.72710e-09
 Reference value :  2.70972e-09
 Reference value :  4.16496e-09
 Reference value :  5.88048e-09
 Reference value :  6.81497e-09
 Reference value :  7.44465e-09
 Reference value :  8.60040e-09
 Reference value :  9.90916e-09
 Reference value :  1.24210e-08
 Reference value :  1.81370e-08
 Reference value :  2.59322e-08
 Reference value :  3.26138e-08
 Reference value :  4.02569e-08
 Reference value :  6.84368e-08
 Reference value :  1.62982e-07
 Reference value :  4.50928e-07
 Reference value :  5.30068e-07
 Reference value :  7.10473e-07
 Reference value :  1.00050e-06
 Reference value :  1.00055e-06
 Reference value :  1.00085e-06
 Reference value :  1.00100e-06
 Reference value :  1.00103e-06
 Reference value :  1.00121e-06
 Reference value :  1.00140e-06
 Reference value :  1.00200e-06
 Reference value :  1.00288e-06
 Reference value :  1.00403e-06
 Reference value :  1.00458e-06
 Reference value :  1.00508e-06
 Reference value :  1.00567e-06
 Reference value :  1.00625e-06
 Reference value :  1.00738e-06
 Reference value :  1.00858e-06
 Reference value :  1.01032e-06
 Reference value :  1.01279e-06
 Reference value :  1.02758e-06
 Reference value :  1.04730e-06
 Reference value :  1.16562e-06
 Reference value :  1.63892e-06
 Reference value :  2.00000e-06
 Reference value :  2.00005e-06
 Reference value :  2.00015e-06
 Reference value :  2.00035e-06
 Reference value :  2.00050e-06
 Reference value :  2.00060e-06
 Reference value :  2.00074e-06
 Reference value :  2.00101e-06
 Reference value :  2.00135e-06
 Reference value :  2.00179e-06
 Reference value :  2.00262e-06
 Reference value :  2.00311e-06
 Reference value :  2.00420e-06
 Reference value :  2.00496e-06
 Reference value :  2.00675e-06
 Reference value :  2.00785e-06
 Reference value :  2.01003e-06
 Reference value :  2.01308e-06
 Reference value :  2.01637e-06
 Reference value :  2.03605e-06
 Reference value :  2.28278e-06
 Reference value :  3.00055e-06
 Reference value :  3.00100e-06
 Reference value :  3.00124e-06
 Reference value :  3.00178e-06
 Reference value :  3.00211e-06
 Reference value :  3.00357e-06
 Reference value :  3.00402e-06
 Reference value :  3.00501e-06
 Reference value :  3.00625e-06
 Reference value :  3.00862e-06
 Reference value :  3.01615e-06
 Reference value :  3.07342e-06
 Reference value :  3.46098e-06
 Reference value :  4.00005e-06
 Reference value :  4.00050e-06
 Reference value :  4.00101e-06
 Reference value :  4.00219e-06
 Reference value :  4.00306e-06
 Reference value :  4.00359e-06
 Reference value :  4.00404e-06
 Reference value :  4.00492e-06
 Reference value :  4.00603e-06
 Reference value :  4.00664e-06
 Reference value :  4.00756e-06
 Reference value :  4.00937e-06
 Reference value :  4.01109e-06
 Reference value :  4.01201e-06
 Reference value :  4.01265e-06
 Reference value :  4.01337e-06
 Reference value :  4.01523e-06
 Reference value :  4.01718e-06
 Reference value :  4.02021e-06
 Reference value :  4.03501e-06
 Reference value :  4.17005e-06
 Reference value :  4.35569e-06
 Reference value :  4.75942e-06
 Reference value :  5.00085e-06
 Reference value :  5.00110e-06
 Reference value :  5.00178e-06
 Reference value :  5.00251e-06
 Reference value :  5.00358e-06
 Reference value :  5.00454e-06
 Reference value :  5.00566e-06
 Reference value :  5.01155e-06
 Reference value :  5.05674e-06
 Reference value :  5.77981e-06
 Reference value :  6.00015e-06
 Reference value :  6.00053e-06
 Reference value :  6.00101e-06
 Reference value :  6.00220e-06
 Reference value :  6.00309e-06
 Reference value :  6.00494e-06
 Reference value :  6.00623e-06
 Reference value :  6.00769e-06
 Reference value :  6.01056e-06
 Reference value :  6.02473e-06
 Reference value :  6.07179e-06
 Reference value :  7.00050e-06
 Reference value :  7.00085e-06
 Reference value :  7.00110e-06
 Reference value :  7.00178e-06
 Reference value :  7.00212e-06
 Reference value :  7.00295e-06
 Reference value :  7.00402e-06
 Reference value :  7.00501e-06
 Reference value :  7.00624e-06
 Reference value :  7.00862e-06
 Reference value :  7.01333e-06
 Reference value :  7.04385e-06
 Reference value :  7.23122e-06
 Reference value :  8.00005e-06
 Reference value :  8.00035e-06
 Reference value :  8.00060e-06
 Reference value :  8.00135e-06
 Reference value :  8.00219e-06
 Reference value :  8.00306e-06
 Reference value :  8.00404e-06
 Reference value :  8.00492e-06
 Reference value :  8.00603e-06
 Reference value :  8.00757e-06
 Reference value :  8.00937e-06
 Reference value :  8.01108e-06
 Reference value :  8.01264e-06
 Reference value :  8.01433e-06
 Reference value :  8.01612e-06
 Reference value :  8.02014e-06
 Reference value :  8.02778e-06
 Reference value :  8.04901e-06
 Reference value :  8.16282e-06
 Reference value :  8.35414e-06
 Reference value :  8.50308e-06
 Reference value :  9.00050e-06
 Reference value :  9.00085e-06
 Reference value :  9.00110e-06
 Reference value :  9.00151e-06
 Reference value :  9.00212e-06
 Reference value :  9.00296e-06
 Reference value :  9.00403e-06
 Reference value :  9.00509e-06
 Reference value :  9.00769e-06
 Reference value :  9.02058e-06
 Reference value :  9.20119e-06
 Reference value :  1.00001e-05
 Reference value :  1.00005e-05
 Reference value :  1.00010e-05
 Reference value :  1.00018e-05
 Reference value :  1.00031e-05
 Reference value :  1.00049e-05
 Reference value :  1.00062e-05
 Reference value :  1.00077e-05
 Reference value :  1.00095e-05
 Reference value :  1.00247e-05
 Reference value :  1.02601e-05
 Reference value :  1.10006e-05
 Reference value :  1.10010e-05
 Reference value :  1.10015e-05
 Reference value :  1.10021e-05
 Reference value :  1.10036e-05
 Reference value :  1.10040e-05
 Reference value :  1.10050e-05
 Reference value :  1.10062e-05
 Reference value :  1.10086e-05
 Reference value :  1.10133e-05
 Reference value :  1.10299e-05
 Reference value :  1.12312e-05
 Reference value :  1.20000e-05
 Reference value :  1.20003e-05
 Reference value :  1.20005e-05
 Reference value :  1.20010e-05
 Reference value :  1.20022e-05
 Reference value :  1.20031e-05
 Reference value :  1.20040e-05
 Reference value :  1.20049e-05
 Reference value :  1.20066e-05
 Reference value :  1.20085e-05
 Reference value :  1.20102e-05
 Reference value :  1.20120e-05
 Reference value :  1.20143e-05
 Reference value :  1.20161e-05
 Reference value :  1.20227e-05
 Reference value :  1.20688e-05
 Reference value :  1.21464e-05
 Reference value :  1.22345e-05
 Reference value :  1.24211e-05
 Reference value :  1.26375e-05
 Reference value :  1.30007e-05
 Reference value :  1.30010e-05
 Reference value :  1.30015e-05
 Reference value :  1.30021e-05
 Reference value :  1.30036e-05
 Reference value :  1.30045e-05
 Reference value :  1.30057e-05
 Reference value :  1.30090e-05
 Reference value :  1.30206e-05
 Reference value :  1.31050e-05
 Reference value :  1.40000e-05
 Reference value :  1.40004e-05
 Reference value :  1.40006e-05
 Reference value :  1.40014e-05
 Reference value :  1.40026e-05
 Reference value :  1.40036e-05
 Reference value :  1.40056e-05
 Reference value :  1.40069e-05
 Reference value :  1.40077e-05
 Reference value :  1.40106e-05
 Reference value :  1.40718e-05
 Reference value :  1.50005e-05
 Reference value :  1.50009e-05
 Reference value :  1.50011e-05
 Reference value :  1.50018e-05
 Reference value :  1.50021e-05
 Reference value :  1.50036e-05
 Reference value :  1.50040e-05
 Reference value :  1.50050e-05
 Reference value :  1.50062e-05
 Reference value :  1.50077e-05
 Reference value :  1.50098e-05
 Reference value :  1.50133e-05
 Reference value :  1.50299e-05
 Reference value :  1.50718e-05
 Reference value :  1.52313e-05
 Reference value :  1.60000e-05
 Reference value :  1.60001e-05
 Reference value :  1.60005e-05
 Reference value :  1.60010e-05
 Reference value :  1.60018e-05
 Reference value :  1.60026e-05
 Reference value :  1.60036e-05
 Reference value :  1.60045e-05
 Reference value :  1.60054e-05
 Reference value :  1.60076e-05
 Reference value :  1.60094e-05
 Reference value :  1.60112e-05
 Reference value :  1.60133e-05
 Reference value :  1.60151e-05
 Reference value :  1.60184e-05
 Reference value :  1.60273e-05
 Reference value :  1.60425e-05
 Reference value :  1.60501e-05
 Reference value :  1.60557e-05
 Reference value :  1.60647e-05
 Reference value :  1.60883e-05
 Reference value :  1.61396e-05
 Reference value :  1.62685e-05
 Reference value :  1.70005e-05
 Reference value :  1.70007e-05
 Reference value :  1.70010e-05
 Reference value :  1.70012e-05
 Reference value :  1.70017e-05
 Reference value :  1.70024e-05
 Reference value :  1.70035e-05
 Reference value :  1.70046e-05
 Reference value :  1.70057e-05
 Reference value :  1.70072e-05
 Reference value :  1.70139e-05
 Reference value :  1.70981e-05
 Reference value :  1.77266e-05
 Reference value :  1.80004e-05
 Reference value :  1.80006e-05
 Reference value :  1.80015e-05
 Reference value :  1.80023e-05
 Reference value :  1.80032e-05
 Reference value :  1.80042e-05
 Reference value :  1.80056e-05
 Reference value :  1.80068e-05
 Reference value :  1.80085e-05
 Reference value :  1.80103e-05
 Reference value :  1.80170e-05
 Reference value :  1.80350e-05
 Reference value :  1.81815e-05
 Reference value :  1.90005e-05
 Reference value :  1.90009e-05
 Reference value :  1.90010e-05
 Reference value :  1.90012e-05
 Reference value :  1.90017e-05
 Reference value :  1.90020e-05
 Reference value :  1.90029e-05
 Reference value :  1.90041e-05
 Reference value :  1.90051e-05
 Reference value :  1.90065e-05
 Reference value :  1.90107e-05
 Reference value :  1.90304e-05
 Reference value :  1.93506e-05
 Reference value :  2.00002e-05
 Reference value :  2.00005e-05
 Reference value :  2.00010e-05
 Reference value :  2.00019e-05
 Reference value :  2.00023e-05
 Reference value :  2.00032e-05
 Reference value :  2.00042e-05
 Reference value :  2.00051e-05
 Reference value :  2.00062e-05
 Reference value :  2.00098e-05
 Reference value :  2.00110e-05
 Reference value :  2.00133e-05
 Reference value :  2.00153e-05
 Reference value :  2.00190e-05
 Reference value :  2.00282e-05
 Reference value :  2.00585e-05
 Reference value :  2.02030e-05
 Reference value :  2.06936e-05
 Reference value :  2.10005e-05
 Reference value :  2.10010e-05
 Reference value :  2.10011e-05
 Reference value :  2.10015e-05
 Reference value :  2.10020e-05
 Reference value :  2.10029e-05
 Reference value :  2.10041e-05
 Reference value :  2.10052e-05
 Reference value :  2.10064e-05
 Reference value :  2.10108e-05
 Reference value :  2.10540e-05
 Reference value :  2.17404e-05
 Reference value :  2.20001e-05
 Reference value :  2.20005e-05
 Reference value :  2.20010e-05
 Reference value :  2.20019e-05
 Reference value :  2.20023e-05
 Reference value :  2.20032e-05
 Reference value :  2.20042e-05
 Reference value :  2.20056e-05
 Reference value :  2.20062e-05
 Reference value :  2.20076e-05
 Reference value :  2.20103e-05
 Reference value :  2.20232e-05
 Reference value :  2.21799e-05
 Reference value :  2.30005e-05
 Reference value :  2.30008e-05
 Reference value :  2.30011e-05
 Reference value :  2.30017e-05
 Reference value :  2.30024e-05
 Reference value :  2.30041e-05
 Reference value :  2.30051e-05
 Reference value :  2.30065e-05
 Reference value :  2.30107e-05
 Reference value :  2.30303e-05
 Reference value :  2.31805e-05
 Reference value :  2.40001e-05
 Reference value :  2.40005e-05
 Reference value :  2.40007e-05
 Reference value :  2.40015e-05
 Reference value :  2.40023e-05
 Reference value :  2.40032e-05
 Reference value :  2.40042e-05
 Reference value :  2.40051e-05
 Reference value :  2.40069e-05
 Reference value :  2.40098e-05
 Reference value :  2.40110e-05
 Reference value :  2.40133e-05
 Reference value :  2.40153e-05
 Reference value :  2.40191e-05
 Reference value :  2.40282e-05
 Reference value :  2.40569e-05
 Reference value :  2.42947e-05
 Reference value :  2.50005e-05
 Reference value :  2.50008e-05
 Reference value :  2.50011e-05
 Reference value :  2.50014e-05
 Reference value :  2.50020e-05
 Reference value :  2.50035e-05
 Reference value :  2.50046e-05
 Reference value :  2.50057e-05
 Reference value :  2.50072e-05
 Reference value :  2.50197e-05
 Reference value :  2.51915e-05
 Reference value :  2.60001e-05
 Reference value :  2.60005e-05
 Reference value :  2.60006e-05
 Reference value :  2.60015e-05
 Reference value :  2.60023e-05
 Reference value :  2.60032e-05
 Reference value :  2.60048e-05
 Reference value :  2.60062e-05
 Reference value :  2.60076e-05
 Reference value :  2.60103e-05
 Reference value :  2.60169e-05
 Reference value :  2.60966e-05
 Reference value :  2.70005e-05
 Reference value :  2.70009e-05
 Reference value :  2.70011e-05
 Reference value :  2.70014e-05
 Reference value :  2.70020e-05
 Reference value :  2.70029e-05
 Reference value :  2.70041e-05
 Reference value :  2.70057e-05
 Reference value :  2.70072e-05
 Reference value :  2.70303e-05
 Reference value :  2.76933e-05
 Reference value :  2.80001e-05
 Reference value :  2.80005e-05
 Reference value :  2.80007e-05
 Reference value :  2.80010e-05
 Reference value :  2.80023e-05
 Reference value :  2.80032e-05
 Reference value :  2.80042e-05
 Reference value :  2.80047e-05
 Reference value :  2.80051e-05
 Reference value :  2.80056e-05
 Reference value :  2.80062e-05
 Reference value :  2.80069e-05
 Reference value :  2.80098e-05
 Reference value :  2.80110e-05
 Reference value :  2.80124e-05
 Reference value :  2.80134e-05
 Reference value :  2.80144e-05
 Reference value :  2.80154e-05
 Reference value :  2.80164e-05
 Reference value :  2.80175e-05
 Reference value :  2.80191e-05
 Reference value :  2.80237e-05
 Reference value :  2.80283e-05
 Reference value :  2.80458e-05
 Reference value :  2.80589e-05
 Reference value :  2.80741e-05
 Reference value :  2.80844e-05
 Reference value :  2.81106e-05
 Reference value :  2.81519e-05
 Reference value :  2.81769e-05
 Reference value :  2.82310e-05
 Reference value :  2.83724e-05
 Reference value :  2.86373e-05
 Reference value :  2.90005e-05
 Reference value :  2.90007e-05
 Reference value :  2.90010e-05
 Reference value :  2.90011e-05
 Reference value :  2.90015e-05
 Reference value :  2.90020e-05
 Reference value :  2.90029e-05
 Reference value :  2.90041e-05
 Reference value :  2.90046e-05
 Reference value :  2.90057e-05
 Reference value :  2.90065e-05
 Reference value :  2.90088e-05
 Reference value :  2.90202e-05
 Reference value :  2.92019e-05
 Reference value :  3.00001e-05
 Reference value :  3.00005e-05
 Reference value :  3.00007e-05
 Reference value :  3.00015e-05
 Reference value :  3.00023e-05
 Reference value :  3.00032e-05
 Reference value :  3.00043e-05
 Reference value :  3.00058e-05
 Reference value :  3.00071e-05
 Reference value :  3.00088e-05
 Reference value :  3.00109e-05
 Reference value :  3.00243e-05
 Reference value :  3.01710e-05
 Reference value :  3.10005e-05
 Reference value :  3.10010e-05
 Reference value :  3.10012e-05
 Reference value :  3.10014e-05
 Reference value :  3.10020e-05
 Reference value :  3.10029e-05
 Reference value :  3.10041e-05
 Reference value :  3.10046e-05
 Reference value :  3.10057e-05
 Reference value :  3.10072e-05
 Reference value :  3.10088e-05
 Reference value :  3.10134e-05
 Reference value :  3.10290e-05
 Reference value :  3.10938e-05
 Reference value :  3.15142e-05
 Reference value :  3.20000e-05
 Reference value :  3.20005e-05
 Reference value :  3.20006e-05
 Reference value :  3.20015e-05
 Reference value :  3.20023e-05
 Reference value :  3.20032e-05
 Reference value :  3.20042e-05
 Reference value :  3.20051e-05
 Reference value :  3.20069e-05
 Reference value :  3.20084e-05
 Reference value :  3.20097e-05
 Reference value :  3.20115e-05
 Reference value :  3.20142e-05
 Reference value :  3.20150e-05
 Reference value :  3.20244e-05
 Reference value :  3.21271e-05
 Reference value :  3.22765e-05
 Reference value :  3.23761e-05
 Reference value :  3.24781e-05
 Reference value :  3.25492e-05
 Reference value :  3.27046e-05
 Reference value :  3.28693e-05
 Reference value :  3.30007e-05
 Reference value :  3.30010e-05
 Reference value :  3.30011e-05
 Reference value :  3.30015e-05
 Reference value :  3.30017e-05
 Reference value :  3.30021e-05
 Reference value :  3.30029e-05
 Reference value :  3.30035e-05
 Reference value :  3.30051e-05
 Reference value :  3.30067e-05
 Reference value :  3.30080e-05
 Reference value :  3.30121e-05
 Reference value :  3.30231e-05
 Reference value :  3.30670e-05
 Reference value :  3.32430e-05
 Reference value :  3.39466e-05
No. of Data Rows : 1243
ngspice-44 done
