
Note: Compatibility modes selected: hs a


Circuit: ** sch_path: /home/ece/cace/sar-adc-using-sky130-pdk/runs/run_2025-09-13_01-16-02/parameters/dnl/run_3/sar_output_dnl.sch

option SCALE: Scale is set to 1e-06 for instance and model parameters
option SCALE: Scale is set to 1e-06 for instance and model parameters
option SCALE: Scale is set to 1e-06 for instance and model parameters
option SCALE: Scale is set to 1e-06 for instance and model parameters
Doing analysis at TEMP = 27.000000 and TNOM = 27.000000

Using KLU as Direct Linear Solver
Operating point simulation skipped by 'uic',
  now using transient initial conditions.
 Reference value :  1.00000e-12
 Reference value :  1.08400e-12
 Reference value :  1.68706e-12
 Reference value :  3.10180e-12
 Reference value :  9.22846e-12
 Reference value :  5.88524e-11
 Reference value :  1.15609e-10
 Reference value :  4.27790e-10
 Reference value :  1.34110e-09
 Reference value :  3.13396e-09
 Reference value :  4.90886e-09
 Reference value :  6.64927e-09
 Reference value :  8.75959e-09
 Reference value :  1.04320e-08
 Reference value :  1.39164e-08
 Reference value :  2.60157e-08
 Reference value :  5.89307e-08
 Reference value :  2.50110e-07
 Reference value :  2.50208e-07
 Reference value :  2.50317e-07
 Reference value :  2.50764e-07
 Reference value :  2.51971e-07
 Reference value :  2.53826e-07
 Reference value :  2.55766e-07
 Reference value :  2.64279e-07
 Reference value :  4.17831e-07
 Reference value :  5.00070e-07
 Reference value :  5.00220e-07
 Reference value :  5.00857e-07
 Reference value :  5.01627e-07
 Reference value :  5.03085e-07
 Reference value :  5.04989e-07
 Reference value :  5.08675e-07
 Reference value :  5.11200e-07
 Reference value :  5.12529e-07
 Reference value :  5.17890e-07
 Reference value :  5.68279e-07
 Reference value :  7.50110e-07
 Reference value :  7.50208e-07
 Reference value :  7.50703e-07
 Reference value :  7.52040e-07
 Reference value :  7.53780e-07
 Reference value :  7.55512e-07
 Reference value :  7.58950e-07
 Reference value :  8.02468e-07
 Reference value :  1.00003e-06
 Reference value :  1.00012e-06
 Reference value :  1.00054e-06
 Reference value :  1.00119e-06
 Reference value :  1.00258e-06
 Reference value :  1.00363e-06
 Reference value :  1.00524e-06
 Reference value :  1.00731e-06
 Reference value :  1.01030e-06
 Reference value :  1.01342e-06
 Reference value :  1.01454e-06
 Reference value :  1.01646e-06
 Reference value :  1.01865e-06
 Reference value :  1.02432e-06
 Reference value :  1.08927e-06
 Reference value :  1.18767e-06
 Reference value :  1.22020e-06
 Reference value :  1.24724e-06
 Reference value :  1.25013e-06
 Reference value :  1.25021e-06
 Reference value :  1.25045e-06
 Reference value :  1.25157e-06
 Reference value :  1.25252e-06
 Reference value :  1.25376e-06
 Reference value :  1.25571e-06
 Reference value :  1.25962e-06
 Reference value :  1.27241e-06
 Reference value :  1.47211e-06
 Reference value :  1.50007e-06
 Reference value :  1.50012e-06
 Reference value :  1.50035e-06
 Reference value :  1.50086e-06
 Reference value :  1.50159e-06
 Reference value :  1.50300e-06
 Reference value :  1.50490e-06
 Reference value :  1.50625e-06
 Reference value :  1.50795e-06
 Reference value :  1.51098e-06
 Reference value :  1.52661e-06
 Reference value :  1.75010e-06
 Reference value :  1.75020e-06
 Reference value :  1.75032e-06
 Reference value :  1.75110e-06
 Reference value :  1.75252e-06
 Reference value :  1.75377e-06
 Reference value :  1.75549e-06
 Reference value :  1.75624e-06
 Reference value :  1.75787e-06
 Reference value :  1.76051e-06
 Reference value :  1.76493e-06
 Reference value :  1.77446e-06
 Reference value :  1.84402e-06
 Reference value :  2.00001e-06
 Reference value :  2.00007e-06
 Reference value :  2.00012e-06
 Reference value :  2.00035e-06
 Reference value :  2.00086e-06
 Reference value :  2.00163e-06
 Reference value :  2.00258e-06
 Reference value :  2.00364e-06
 Reference value :  2.00470e-06
 Reference value :  2.00519e-06
 Reference value :  2.00710e-06
 Reference value :  2.00921e-06
 Reference value :  2.01010e-06
 Reference value :  2.01197e-06
 Reference value :  2.01372e-06
 Reference value :  2.01527e-06
 Reference value :  2.01806e-06
 Reference value :  2.02097e-06
 Reference value :  2.03253e-06
 Reference value :  2.04928e-06
 Reference value :  2.05743e-06
 Reference value :  2.06297e-06
 Reference value :  2.07205e-06
 Reference value :  2.08305e-06
 Reference value :  2.09692e-06
 Reference value :  2.15481e-06
 Reference value :  2.25011e-06
 Reference value :  2.25020e-06
 Reference value :  2.25026e-06
 Reference value :  2.25045e-06
 Reference value :  2.25110e-06
 Reference value :  2.25203e-06
 Reference value :  2.25324e-06
 Reference value :  2.25438e-06
 Reference value :  2.25502e-06
 Reference value :  2.25803e-06
 Reference value :  2.27252e-06
 Reference value :  2.47212e-06
 Reference value :  2.50010e-06
 Reference value :  2.50035e-06
 Reference value :  2.50163e-06
 Reference value :  2.50307e-06
 Reference value :  2.50418e-06
 Reference value :  2.50630e-06
 Reference value :  2.50794e-06
 Reference value :  2.50982e-06
 Reference value :  2.51209e-06
 Reference value :  2.57224e-06
 Reference value :  2.75017e-06
 Reference value :  2.75032e-06
 Reference value :  2.75203e-06
 Reference value :  2.75377e-06
 Reference value :  2.75549e-06
 Reference value :  2.75726e-06
 Reference value :  2.76454e-06
 Reference value :  2.80371e-06
 Reference value :  3.00000e-06
 Reference value :  3.00003e-06
 Reference value :  3.00011e-06
 Reference value :  3.00022e-06
 Reference value :  3.00086e-06
 Reference value :  3.00163e-06
 Reference value :  3.00258e-06
 Reference value :  3.00307e-06
 Reference value :  3.00418e-06
 Reference value :  3.00524e-06
 Reference value :  3.00580e-06
 Reference value :  3.00732e-06
 Reference value :  3.01029e-06
 Reference value :  3.01187e-06
 Reference value :  3.01341e-06
 Reference value :  3.01454e-06
 Reference value :  3.01647e-06
 Reference value :  3.01867e-06
 Reference value :  3.02188e-06
 Reference value :  3.03916e-06
 Reference value :  3.07556e-06
 Reference value :  3.12492e-06
 Reference value :  3.14637e-06
 Reference value :  3.20088e-06
 Reference value :  3.25011e-06
 Reference value :  3.25017e-06
 Reference value :  3.25021e-06
 Reference value :  3.25032e-06
 Reference value :  3.25070e-06
 Reference value :  3.25157e-06
 Reference value :  3.25203e-06
 Reference value :  3.25324e-06
 Reference value :  3.25378e-06
 Reference value :  3.25502e-06
 Reference value :  3.25647e-06
 Reference value :  3.26256e-06
 Reference value :  3.28581e-06
 Reference value :  3.47180e-06
 Reference value :  3.50003e-06
 Reference value :  3.50011e-06
 Reference value :  3.50022e-06
 Reference value :  3.50054e-06
 Reference value :  3.50086e-06
 Reference value :  3.50163e-06
 Reference value :  3.50258e-06
 Reference value :  3.50306e-06
 Reference value :  3.50418e-06
 Reference value :  3.50630e-06
 Reference value :  3.50794e-06
 Reference value :  3.51093e-06
 Reference value :  3.54172e-06
 Reference value :  3.75011e-06
 Reference value :  3.75021e-06
 Reference value :  3.75032e-06
 Reference value :  3.75109e-06
 Reference value :  3.75203e-06
 Reference value :  3.75324e-06
 Reference value :  3.75377e-06
 Reference value :  3.75490e-06
 Reference value :  3.75634e-06
 Reference value :  3.76126e-06
 Reference value :  3.80314e-06
 Reference value :  4.00001e-06
 Reference value :  4.00010e-06
 Reference value :  4.00016e-06
 Reference value :  4.00054e-06
 Reference value :  4.00119e-06
 Reference value :  4.00210e-06
 Reference value :  4.00364e-06
 Reference value :  4.00524e-06
 Reference value :  4.00732e-06
 Reference value :  4.01029e-06
 Reference value :  4.01341e-06
 Reference value :  4.01557e-06
 Reference value :  4.01755e-06
 Reference value :  4.01987e-06
 Reference value :  4.02946e-06
 Reference value :  4.04694e-06
 Reference value :  4.05622e-06
 Reference value :  4.07399e-06
 Reference value :  4.13362e-06
 Reference value :  4.20673e-06
 Reference value :  4.25011e-06
 Reference value :  4.25021e-06
 Reference value :  4.25045e-06
 Reference value :  4.25203e-06
 Reference value :  4.25324e-06
 Reference value :  4.25432e-06
 Reference value :  4.25645e-06
 Reference value :  4.26506e-06
 Reference value :  4.27601e-06
 Reference value :  4.29038e-06
 Reference value :  4.31052e-06
 Reference value :  4.45425e-06
 Reference value :  4.50003e-06
 Reference value :  4.50010e-06
 Reference value :  4.50016e-06
 Reference value :  4.50054e-06
 Reference value :  4.50086e-06
 Reference value :  4.50163e-06
 Reference value :  4.50258e-06
 Reference value :  4.50306e-06
 Reference value :  4.50418e-06
 Reference value :  4.50568e-06
 Reference value :  4.50629e-06
 Reference value :  4.50794e-06
 Reference value :  4.50983e-06
 Reference value :  4.51210e-06
 Reference value :  4.54166e-06
 Reference value :  4.75010e-06
 Reference value :  4.75017e-06
 Reference value :  4.75022e-06
 Reference value :  4.75070e-06
 Reference value :  4.75203e-06
 Reference value :  4.75377e-06
 Reference value :  4.75548e-06
 Reference value :  4.75723e-06
 Reference value :  4.76996e-06
 Reference value :  4.93499e-06
 Reference value :  5.00007e-06
 Reference value :  5.00022e-06
 Reference value :  5.00086e-06
 Reference value :  5.00163e-06
 Reference value :  5.00307e-06
 Reference value :  5.00418e-06
 Reference value :  5.00524e-06
 Reference value :  5.00731e-06
 Reference value :  5.01027e-06
 Reference value :  5.01341e-06
 Reference value :  5.01559e-06
 Reference value :  5.01873e-06
 Reference value :  5.02850e-06
 Reference value :  5.04131e-06
 Reference value :  5.05341e-06
 Reference value :  5.07093e-06
 Reference value :  5.11839e-06
 Reference value :  5.25010e-06
 Reference value :  5.25013e-06
 Reference value :  5.25020e-06
 Reference value :  5.25026e-06
 Reference value :  5.25045e-06
 Reference value :  5.25109e-06
 Reference value :  5.25202e-06
 Reference value :  5.25323e-06
 Reference value :  5.25432e-06
 Reference value :  5.25647e-06
 Reference value :  5.26254e-06
 Reference value :  5.47267e-06
 Reference value :  5.50010e-06
 Reference value :  5.50035e-06
 Reference value :  5.50119e-06
 Reference value :  5.50300e-06
 Reference value :  5.50490e-06
 Reference value :  5.50625e-06
 Reference value :  5.50795e-06
 Reference value :  5.51111e-06
 Reference value :  5.52616e-06
 Reference value :  5.73964e-06
 Reference value :  5.75013e-06
 Reference value :  5.75022e-06
 Reference value :  5.75045e-06
 Reference value :  5.75109e-06
 Reference value :  5.75203e-06
 Reference value :  5.75324e-06
 Reference value :  5.75377e-06
 Reference value :  5.75490e-06
 Reference value :  5.75623e-06
 Reference value :  5.75889e-06
 Reference value :  5.76475e-06
 Reference value :  5.78453e-06
 Reference value :  5.90587e-06
 Reference value :  6.00003e-06
 Reference value :  6.00011e-06
 Reference value :  6.00022e-06
 Reference value :  6.00086e-06
 Reference value :  6.00163e-06
 Reference value :  6.00258e-06
 Reference value :  6.00308e-06
 Reference value :  6.00419e-06
 Reference value :  6.00519e-06
 Reference value :  6.00640e-06
 Reference value :  6.00807e-06
 Reference value :  6.01010e-06
 Reference value :  6.01196e-06
 Reference value :  6.01369e-06
 Reference value :  6.01525e-06
 Reference value :  6.01802e-06
 Reference value :  6.02565e-06
 Reference value :  6.04026e-06
 Reference value :  6.06054e-06
 Reference value :  6.11336e-06
 Reference value :  6.18158e-06
 Reference value :  6.23393e-06
 Reference value :  6.25013e-06
 Reference value :  6.25021e-06
 Reference value :  6.25032e-06
 Reference value :  6.25109e-06
 Reference value :  6.25202e-06
 Reference value :  6.25323e-06
 Reference value :  6.25435e-06
 Reference value :  6.25564e-06
 Reference value :  6.25955e-06
 Reference value :  6.27204e-06
 Reference value :  6.31062e-06
 Reference value :  6.50000e-06
 Reference value :  6.50007e-06
 Reference value :  6.50012e-06
 Reference value :  6.50035e-06
 Reference value :  6.50086e-06
 Reference value :  6.50204e-06
 Reference value :  6.50356e-06
 Reference value :  6.50561e-06
 Reference value :  6.50625e-06
 Reference value :  6.50795e-06
 Reference value :  6.51110e-06
 Reference value :  6.52622e-06
 Reference value :  6.62623e-06
 Reference value :  6.75011e-06
 Reference value :  6.75020e-06
 Reference value :  6.75026e-06
 Reference value :  6.75045e-06
 Reference value :  6.75156e-06
 Reference value :  6.75251e-06
 Reference value :  6.75376e-06
 Reference value :  6.75490e-06
 Reference value :  6.75623e-06
 Reference value :  6.75785e-06
 Reference value :  6.76040e-06
 Reference value :  6.76791e-06
 Reference value :  6.83616e-06
 Reference value :  7.00003e-06
 Reference value :  7.00011e-06
 Reference value :  7.00022e-06
 Reference value :  7.00086e-06
 Reference value :  7.00163e-06
 Reference value :  7.00308e-06
 Reference value :  7.00419e-06
 Reference value :  7.00574e-06
 Reference value :  7.00807e-06
 Reference value :  7.01010e-06
 Reference value :  7.01307e-06
 Reference value :  7.01455e-06
 Reference value :  7.01636e-06
 Reference value :  7.01825e-06
 Reference value :  7.02661e-06
 Reference value :  7.04747e-06
 Reference value :  7.05659e-06
 Reference value :  7.06512e-06
 Reference value :  7.08382e-06
 Reference value :  7.11184e-06
 Reference value :  7.14800e-06
 Reference value :  7.25011e-06
 Reference value :  7.25017e-06
 Reference value :  7.25022e-06
 Reference value :  7.25032e-06
 Reference value :  7.25070e-06
 Reference value :  7.25156e-06
 Reference value :  7.25202e-06
 Reference value :  7.25323e-06
 Reference value :  7.25377e-06
 Reference value :  7.25501e-06
 Reference value :  7.25645e-06
 Reference value :  7.26253e-06
 Reference value :  7.31180e-06
 Reference value :  7.50000e-06
 Reference value :  7.50007e-06
 Reference value :  7.50011e-06
 Reference value :  7.50022e-06
 Reference value :  7.50086e-06
 Reference value :  7.50163e-06
 Reference value :  7.50258e-06
 Reference value :  7.50307e-06
 Reference value :  7.50418e-06
 Reference value :  7.50630e-06
 Reference value :  7.50794e-06
 Reference value :  7.50983e-06
 Reference value :  7.51441e-06
 Reference value :  7.57167e-06
 Reference value :  7.75011e-06
 Reference value :  7.75020e-06
 Reference value :  7.75026e-06
 Reference value :  7.75070e-06
 Reference value :  7.75202e-06
 Reference value :  7.75376e-06
 Reference value :  7.75490e-06
 Reference value :  7.75633e-06
 Reference value :  7.76442e-06
 Reference value :  7.93326e-06
 Reference value :  8.00007e-06
 Reference value :  8.00016e-06
 Reference value :  8.00086e-06
 Reference value :  8.00163e-06
 Reference value :  8.00258e-06
 Reference value :  8.00307e-06
 Reference value :  8.00420e-06
 Reference value :  8.00526e-06
 Reference value :  8.00736e-06
 Reference value :  8.00904e-06
 Reference value :  8.01117e-06
 Reference value :  8.02556e-06
 Reference value :  8.13397e-06
 Reference value :  8.25011e-06
 Reference value :  8.25017e-06
 Reference value :  8.25021e-06
 Reference value :  8.25026e-06
 Reference value :  8.25045e-06
 Reference value :  8.25109e-06
 Reference value :  8.25202e-06
 Reference value :  8.25323e-06
 Reference value :  8.25575e-06
 Reference value :  8.26308e-06
 Reference value :  8.31911e-06
 Reference value :  8.50000e-06
 Reference value :  8.50000e-06
 Reference value :  8.50001e-06
 Reference value :  8.50004e-06
 Reference value :  8.50010e-06
 Reference value :  8.50011e-06
 Reference value :  8.50014e-06
 Reference value :  8.50027e-06
 Reference value :  8.50073e-06
 Reference value :  8.50162e-06
 Reference value :  8.50254e-06
 Reference value :  8.50359e-06
 Reference value :  8.50463e-06
 Reference value :  8.50582e-06
 Reference value :  8.50954e-06
 Reference value :  8.52285e-06
 Reference value :  8.52897e-06
 Reference value :  8.53324e-06
 Reference value :  8.53682e-06
 Reference value :  8.53972e-06
 Reference value :  8.54945e-06
 Reference value :  8.56579e-06
 Reference value :  8.60183e-06
 Reference value :  8.75010e-06
 Reference value :  8.75020e-06
 Reference value :  8.75032e-06
 Reference value :  8.75156e-06
 Reference value :  8.75322e-06
 Reference value :  8.75435e-06
 Reference value :  8.75637e-06
 Reference value :  8.77170e-06
 Reference value :  9.00001e-06
 Reference value :  9.00011e-06
 Reference value :  9.00022e-06
 Reference value :  9.00086e-06
 Reference value :  9.00210e-06
 Reference value :  9.00362e-06
 Reference value :  9.00695e-06
 Reference value :  9.00992e-06
 Reference value :  9.01264e-06
 Reference value :  9.01787e-06
 Reference value :  9.07402e-06
 Reference value :  9.25011e-06
 Reference value :  9.25020e-06
 Reference value :  9.25032e-06
 Reference value :  9.25070e-06
 Reference value :  9.25156e-06
 Reference value :  9.25203e-06
 Reference value :  9.25323e-06
 Reference value :  9.25375e-06
 Reference value :  9.25488e-06
 Reference value :  9.25633e-06
 Reference value :  9.25898e-06
 Reference value :  9.26989e-06
 Reference value :  9.43387e-06
 Reference value :  9.50007e-06
 Reference value :  9.50016e-06
 Reference value :  9.50054e-06
 Reference value :  9.50086e-06
 Reference value :  9.50163e-06
 Reference value :  9.50258e-06
 Reference value :  9.50363e-06
 Reference value :  9.50473e-06
 Reference value :  9.50580e-06
 Reference value :  9.50868e-06
 Reference value :  9.51033e-06
 Reference value :  9.51191e-06
 Reference value :  9.51343e-06
 Reference value :  9.51455e-06
 Reference value :  9.51647e-06
 Reference value :  9.51865e-06
 Reference value :  9.52185e-06
 Reference value :  9.52931e-06
 Reference value :  9.55610e-06
 Reference value :  9.63973e-06
 Reference value :  9.68927e-06
 Reference value :  9.72180e-06
 Reference value :  9.73604e-06
 Reference value :  9.74858e-06
 Reference value :  9.75011e-06
 Reference value :  9.75017e-06
 Reference value :  9.75022e-06
 Reference value :  9.75032e-06
 Reference value :  9.75070e-06
 Reference value :  9.75156e-06
 Reference value :  9.75251e-06
 Reference value :  9.75374e-06
 Reference value :  9.75568e-06
 Reference value :  9.75960e-06
 Reference value :  9.78539e-06
 Reference value :  1.00000e-05
 Reference value :  1.00001e-05
 Reference value :  1.00001e-05
 Reference value :  1.00003e-05
 Reference value :  1.00009e-05
 Reference value :  1.00016e-05
 Reference value :  1.00025e-05
 Reference value :  1.00030e-05
 Reference value :  1.00041e-05
 Reference value :  1.00056e-05
 Reference value :  1.00062e-05
 Reference value :  1.00079e-05
 Reference value :  1.00099e-05
 Reference value :  1.00111e-05
 Reference value :  1.00191e-05
 Reference value :  1.00404e-05
 Reference value :  1.01257e-05
 Reference value :  1.02501e-05
 Reference value :  1.02501e-05
 Reference value :  1.02502e-05
 Reference value :  1.02503e-05
 Reference value :  1.02504e-05
 Reference value :  1.02511e-05
 Reference value :  1.02520e-05
 Reference value :  1.02532e-05
 Reference value :  1.02538e-05
 Reference value :  1.02549e-05
 Reference value :  1.02562e-05
 Reference value :  1.02579e-05
 Reference value :  1.02604e-05
 Reference value :  1.02679e-05
 Reference value :  1.03015e-05
 Reference value :  1.05000e-05
 Reference value :  1.05001e-05
 Reference value :  1.05001e-05
 Reference value :  1.05003e-05
 Reference value :  1.05009e-05
 Reference value :  1.05016e-05
 Reference value :  1.05026e-05
 Reference value :  1.05031e-05
 Reference value :  1.05042e-05
 Reference value :  1.05052e-05
 Reference value :  1.05064e-05
 Reference value :  1.05081e-05
 Reference value :  1.05101e-05
 Reference value :  1.05120e-05
 Reference value :  1.05137e-05
 Reference value :  1.05153e-05
 Reference value :  1.05181e-05
 Reference value :  1.05226e-05
 Reference value :  1.05394e-05
 Reference value :  1.05476e-05
 Reference value :  1.05608e-05
 Reference value :  1.05691e-05
 Reference value :  1.05807e-05
 Reference value :  1.05953e-05
 Reference value :  1.06598e-05
 Reference value :  1.07501e-05
 Reference value :  1.07502e-05
 Reference value :  1.07503e-05
 Reference value :  1.07507e-05
 Reference value :  1.07520e-05
 Reference value :  1.07538e-05
 Reference value :  1.07550e-05
 Reference value :  1.07580e-05
 Reference value :  1.07658e-05
 Reference value :  1.08117e-05
 Reference value :  1.10000e-05
 Reference value :  1.10001e-05
 Reference value :  1.10001e-05
 Reference value :  1.10003e-05
 Reference value :  1.10009e-05
 Reference value :  1.10016e-05
 Reference value :  1.10026e-05
 Reference value :  1.10031e-05
 Reference value :  1.10036e-05
 Reference value :  1.10049e-05
 Reference value :  1.10063e-05
 Reference value :  1.10079e-05
 Reference value :  1.10098e-05
 Reference value :  1.10121e-05
 Reference value :  1.10265e-05
 Reference value :  1.11319e-05
 Reference value :  1.12501e-05
 Reference value :  1.12502e-05
 Reference value :  1.12503e-05
 Reference value :  1.12511e-05
 Reference value :  1.12520e-05
 Reference value :  1.12532e-05
 Reference value :  1.12538e-05
 Reference value :  1.12549e-05
 Reference value :  1.12563e-05
 Reference value :  1.12612e-05
 Reference value :  1.12810e-05
 Reference value :  1.14353e-05
 Reference value :  1.15000e-05
 Reference value :  1.15001e-05
 Reference value :  1.15002e-05
 Reference value :  1.15005e-05
 Reference value :  1.15012e-05
 Reference value :  1.15021e-05
 Reference value :  1.15031e-05
 Reference value :  1.15042e-05
 Reference value :  1.15052e-05
 Reference value :  1.15065e-05
 Reference value :  1.15103e-05
 Reference value :  1.15145e-05
 Reference value :  1.15165e-05
 Reference value :  1.15199e-05
 Reference value :  1.15373e-05
 Reference value :  1.16285e-05
 Reference value :  1.17501e-05
 Reference value :  1.17502e-05
 Reference value :  1.17504e-05
 Reference value :  1.17520e-05
 Reference value :  1.17538e-05
 Reference value :  1.17557e-05
 Reference value :  1.17658e-05
 Reference value :  1.19700e-05
 Reference value :  1.20001e-05
 Reference value :  1.20001e-05
 Reference value :  1.20003e-05
 Reference value :  1.20009e-05
 Reference value :  1.20016e-05
 Reference value :  1.20031e-05
 Reference value :  1.20049e-05
 Reference value :  1.20063e-05
 Reference value :  1.20079e-05
 Reference value :  1.20122e-05
 Reference value :  1.20693e-05
 Reference value :  1.22501e-05
 Reference value :  1.22502e-05
 Reference value :  1.22507e-05
 Reference value :  1.22520e-05
 Reference value :  1.22538e-05
 Reference value :  1.22549e-05
 Reference value :  1.22563e-05
 Reference value :  1.22645e-05
 Reference value :  1.23475e-05
 Reference value :  1.25000e-05
 Reference value :  1.25001e-05
 Reference value :  1.25001e-05
 Reference value :  1.25003e-05
 Reference value :  1.25009e-05
 Reference value :  1.25016e-05
 Reference value :  1.25031e-05
 Reference value :  1.25047e-05
 Reference value :  1.25058e-05
 Reference value :  1.25087e-05
 Reference value :  1.25103e-05
 Reference value :  1.25134e-05
 Reference value :  1.25145e-05
 Reference value :  1.25165e-05
 Reference value :  1.25187e-05
 Reference value :  1.25219e-05
 Reference value :  1.25291e-05
 Reference value :  1.25459e-05
 Reference value :  1.25552e-05
 Reference value :  1.25655e-05
 Reference value :  1.25783e-05
 Reference value :  1.26073e-05
 Reference value :  1.27047e-05
 Reference value :  1.27383e-05
 Reference value :  1.27501e-05
 Reference value :  1.27502e-05
 Reference value :  1.27503e-05
 Reference value :  1.27511e-05
 Reference value :  1.27520e-05
 Reference value :  1.27532e-05
 Reference value :  1.27538e-05
 Reference value :  1.27550e-05
 Reference value :  1.27580e-05
 Reference value :  1.27723e-05
 Reference value :  1.29686e-05
 Reference value :  1.30000e-05
 Reference value :  1.30001e-05
 Reference value :  1.30005e-05
 Reference value :  1.30016e-05
 Reference value :  1.30031e-05
 Reference value :  1.30042e-05
 Reference value :  1.30063e-05
 Reference value :  1.30079e-05
 Reference value :  1.30098e-05
 Reference value :  1.30122e-05
 Reference value :  1.30190e-05
 Reference value :  1.30696e-05
 Reference value :  1.32501e-05
 Reference value :  1.32501e-05
 Reference value :  1.32502e-05
 Reference value :  1.32502e-05
 Reference value :  1.32504e-05
 Reference value :  1.32511e-05
 Reference value :  1.32520e-05
 Reference value :  1.32525e-05
 Reference value :  1.32538e-05
 Reference value :  1.32549e-05
 Reference value :  1.32563e-05
 Reference value :  1.32613e-05
 Reference value :  1.33032e-05
 Reference value :  1.35000e-05
 Reference value :  1.35002e-05
 Reference value :  1.35009e-05
 Reference value :  1.35016e-05
 Reference value :  1.35026e-05
 Reference value :  1.35036e-05
 Reference value :  1.35052e-05
 Reference value :  1.35073e-05
 Reference value :  1.35103e-05
 Reference value :  1.35134e-05
 Reference value :  1.35156e-05
 Reference value :  1.35165e-05
 Reference value :  1.35187e-05
 Reference value :  1.35245e-05
 Reference value :  1.35362e-05
 Reference value :  1.35439e-05
 Reference value :  1.35551e-05
 Reference value :  1.35737e-05
 Reference value :  1.36051e-05
 Reference value :  1.37343e-05
 Reference value :  1.37501e-05
 Reference value :  1.37502e-05
 Reference value :  1.37503e-05
 Reference value :  1.37507e-05
 Reference value :  1.37520e-05
 Reference value :  1.37532e-05
 Reference value :  1.37537e-05
 Reference value :  1.37550e-05
 Reference value :  1.37565e-05
 Reference value :  1.37596e-05
 Reference value :  1.37724e-05
 Reference value :  1.38647e-05
 Reference value :  1.40000e-05
 Reference value :  1.40001e-05
 Reference value :  1.40001e-05
 Reference value :  1.40003e-05
 Reference value :  1.40012e-05
 Reference value :  1.40020e-05
 Reference value :  1.40030e-05
 Reference value :  1.40041e-05
 Reference value :  1.40056e-05
 Reference value :  1.40070e-05
 Reference value :  1.40089e-05
 Reference value :  1.40111e-05
 Reference value :  1.40191e-05
 Reference value :  1.40689e-05
 Reference value :  1.42501e-05
 Reference value :  1.42501e-05
 Reference value :  1.42502e-05
 Reference value :  1.42503e-05
 Reference value :  1.42504e-05
 Reference value :  1.42511e-05
 Reference value :  1.42520e-05
 Reference value :  1.42532e-05
 Reference value :  1.42538e-05
 Reference value :  1.42549e-05
 Reference value :  1.42562e-05
 Reference value :  1.42589e-05
 Reference value :  1.42647e-05
 Reference value :  1.43016e-05
 Reference value :  1.45000e-05
 Reference value :  1.45001e-05
 Reference value :  1.45002e-05
 Reference value :  1.45009e-05
 Reference value :  1.45021e-05
 Reference value :  1.45036e-05
 Reference value :  1.45052e-05
 Reference value :  1.45071e-05
 Reference value :  1.45092e-05
 Reference value :  1.45110e-05
 Reference value :  1.45130e-05
 Reference value :  1.45144e-05
 Reference value :  1.45162e-05
 Reference value :  1.45190e-05
 Reference value :  1.45299e-05
 Reference value :  1.45496e-05
 Reference value :  1.45809e-05
 Reference value :  1.45925e-05
 Reference value :  1.46430e-05
 Reference value :  1.46727e-05
 Reference value :  1.47289e-05
 Reference value :  1.47502e-05
 Reference value :  1.47503e-05
 Reference value :  1.47507e-05
 Reference value :  1.47520e-05
 Reference value :  1.47537e-05
 Reference value :  1.47550e-05
 Reference value :  1.47580e-05
 Reference value :  1.47721e-05
 Reference value :  1.48318e-05
 Reference value :  1.50000e-05
 Reference value :  1.50001e-05
 Reference value :  1.50002e-05
 Reference value :  1.50009e-05
 Reference value :  1.50016e-05
 Reference value :  1.50025e-05
 Reference value :  1.50036e-05
 Reference value :  1.50056e-05
 Reference value :  1.50062e-05
 Reference value :  1.50079e-05
 Reference value :  1.50111e-05
 Reference value :  1.50262e-05
 Reference value :  1.52403e-05
 Reference value :  1.52502e-05
 Reference value :  1.52503e-05
 Reference value :  1.52507e-05
 Reference value :  1.52520e-05
 Reference value :  1.52532e-05
 Reference value :  1.52538e-05
 Reference value :  1.52549e-05
 Reference value :  1.52562e-05
 Reference value :  1.52579e-05
 Reference value :  1.52604e-05
 Reference value :  1.52647e-05
 Reference value :  1.52743e-05
 Reference value :  1.53017e-05
 Reference value :  1.54051e-05
 Reference value :  1.55015e-05
 Reference value :  1.55046e-05
 Reference value :  1.55061e-05
 Reference value :  1.55090e-05
 Reference value :  1.55113e-05
 Reference value :  1.55123e-05
 Reference value :  1.55143e-05
 Reference value :  1.55161e-05
 Reference value :  1.55190e-05
 Reference value :  1.55239e-05
 Reference value :  1.55372e-05
 Reference value :  1.55447e-05
 Reference value :  1.55556e-05
 Reference value :  1.55863e-05
 Reference value :  1.57501e-05
 Reference value :  1.57501e-05
 Reference value :  1.57502e-05
 Reference value :  1.57503e-05
 Reference value :  1.57507e-05
 Reference value :  1.57516e-05
 Reference value :  1.57525e-05
 Reference value :  1.57537e-05
 Reference value :  1.57549e-05
 Reference value :  1.57564e-05
 Reference value :  1.57618e-05
 Reference value :  1.58090e-05
 Reference value :  1.60000e-05
 Reference value :  1.60001e-05
 Reference value :  1.60001e-05
 Reference value :  1.60003e-05
 Reference value :  1.60009e-05
 Reference value :  1.60016e-05
 Reference value :  1.60031e-05
 Reference value :  1.60049e-05
 Reference value :  1.60063e-05
 Reference value :  1.60079e-05
 Reference value :  1.60098e-05
 Reference value :  1.60121e-05
 Reference value :  1.60415e-05
 Reference value :  1.62501e-05
 Reference value :  1.62501e-05
 Reference value :  1.62502e-05
 Reference value :  1.62502e-05
 Reference value :  1.62503e-05
 Reference value :  1.62511e-05
 Reference value :  1.62520e-05
 Reference value :  1.62532e-05
 Reference value :  1.62538e-05
 Reference value :  1.62549e-05
 Reference value :  1.62563e-05
 Reference value :  1.62612e-05
 Reference value :  1.63026e-05
 Reference value :  1.65000e-05
 Reference value :  1.65001e-05
 Reference value :  1.65001e-05
 Reference value :  1.65002e-05
 Reference value :  1.65003e-05
 Reference value :  1.65009e-05
 Reference value :  1.65016e-05
 Reference value :  1.65026e-05
 Reference value :  1.65031e-05
 Reference value :  1.65042e-05
 Reference value :  1.65053e-05
 Reference value :  1.65074e-05
 Reference value :  1.65090e-05
 Reference value :  1.65112e-05
 Reference value :  1.65255e-05
 Reference value :  1.66334e-05
 Reference value :  1.67501e-05
 Reference value :  1.67502e-05
 Reference value :  1.67502e-05
 Reference value :  1.67503e-05
 Reference value :  1.67504e-05
 Reference value :  1.67511e-05
 Reference value :  1.67520e-05
 Reference value :  1.67532e-05
 Reference value :  1.67548e-05
 Reference value :  1.67584e-05
 Reference value :  1.67668e-05
 Reference value :  1.68789e-05
 Reference value :  1.70000e-05
 Reference value :  1.70000e-05
 Reference value :  1.70000e-05
 Reference value :  1.70000e-05
 Reference value :  1.70000e-05
 Reference value :  1.70001e-05
 Reference value :  1.70002e-05
 Reference value :  1.70004e-05
 Reference value :  1.70012e-05
 Reference value :  1.70020e-05
 Reference value :  1.70031e-05
 Reference value :  1.70042e-05
 Reference value :  1.70052e-05
 Reference value :  1.70079e-05
 Reference value :  1.70229e-05
 Reference value :  1.70290e-05
 Reference value :  1.70368e-05
 Reference value :  1.70424e-05
 Reference value :  1.70529e-05
 Reference value :  1.70651e-05
 Reference value :  1.70862e-05
 Reference value :  1.71260e-05
 Reference value :  1.72042e-05
 Reference value :  1.72501e-05
 Reference value :  1.72502e-05
 Reference value :  1.72503e-05
 Reference value :  1.72507e-05
 Reference value :  1.72516e-05
 Reference value :  1.72525e-05
 Reference value :  1.72532e-05
 Reference value :  1.72538e-05
 Reference value :  1.72550e-05
 Reference value :  1.72579e-05
 Reference value :  1.72717e-05
 Reference value :  1.74604e-05
 Reference value :  1.75000e-05
 Reference value :  1.75001e-05
 Reference value :  1.75002e-05
 Reference value :  1.75009e-05
 Reference value :  1.75016e-05
 Reference value :  1.75031e-05
 Reference value :  1.75049e-05
 Reference value :  1.75087e-05
 Reference value :  1.75113e-05
 Reference value :  1.75142e-05
 Reference value :  1.75256e-05
 Reference value :  1.75739e-05
 Reference value :  1.77501e-05
 Reference value :  1.77502e-05
 Reference value :  1.77503e-05
 Reference value :  1.77516e-05
 Reference value :  1.77532e-05
 Reference value :  1.77538e-05
 Reference value :  1.77549e-05
 Reference value :  1.77563e-05
 Reference value :  1.77612e-05
 Reference value :  1.77808e-05
 Reference value :  1.79338e-05
 Reference value :  1.80011e-05
 Reference value :  1.80044e-05
 Reference value :  1.80064e-05
 Reference value :  1.80085e-05
 Reference value :  1.80116e-05
 Reference value :  1.80129e-05
 Reference value :  1.80157e-05
 Reference value :  1.80184e-05
 Reference value :  1.80213e-05
 Reference value :  1.80261e-05
 Reference value :  1.80507e-05
 Reference value :  1.81070e-05
 Reference value :  1.81481e-05
 Reference value :  1.81886e-05
 Reference value :  1.82173e-05
 Reference value :  1.82284e-05
 Reference value :  1.82379e-05
 Reference value :  1.82501e-05
 Reference value :  1.82502e-05
 Reference value :  1.82502e-05
 Reference value :  1.82503e-05
 Reference value :  1.82507e-05
 Reference value :  1.82520e-05
 Reference value :  1.82536e-05
 Reference value :  1.82548e-05
 Reference value :  1.82562e-05
 Reference value :  1.82642e-05
 Reference value :  1.83008e-05
 Reference value :  1.85000e-05
 Reference value :  1.85001e-05
 Reference value :  1.85002e-05
 Reference value :  1.85009e-05
 Reference value :  1.85016e-05
 Reference value :  1.85025e-05
 Reference value :  1.85036e-05
 Reference value :  1.85056e-05
 Reference value :  1.85070e-05
 Reference value :  1.85099e-05
 Reference value :  1.85191e-05
 Reference value :  1.86259e-05
 Reference value :  1.87501e-05
 Reference value :  1.87503e-05
 Reference value :  1.87511e-05
 Reference value :  1.87520e-05
 Reference value :  1.87538e-05
 Reference value :  1.87549e-05
 Reference value :  1.87562e-05
 Reference value :  1.87589e-05
 Reference value :  1.87644e-05
 Reference value :  1.87826e-05
 Reference value :  1.89936e-05
 Reference value :  1.90001e-05
 Reference value :  1.90002e-05
 Reference value :  1.90005e-05
 Reference value :  1.90009e-05
 Reference value :  1.90021e-05
 Reference value :  1.90031e-05
 Reference value :  1.90047e-05
 Reference value :  1.90057e-05
 Reference value :  1.90071e-05
 Reference value :  1.90092e-05
 Reference value :  1.90101e-05
 Reference value :  1.90120e-05
 Reference value :  1.90137e-05
 Reference value :  1.90153e-05
 Reference value :  1.90171e-05
 Reference value :  1.90191e-05
 Reference value :  1.90396e-05
 Reference value :  1.90479e-05
 Reference value :  1.90558e-05
 Reference value :  1.90610e-05
 Reference value :  1.90715e-05
 Reference value :  1.90859e-05
 Reference value :  1.91190e-05
 Reference value :  1.92021e-05
 Reference value :  1.92501e-05
 Reference value :  1.92502e-05
 Reference value :  1.92502e-05
 Reference value :  1.92503e-05
 Reference value :  1.92511e-05
 Reference value :  1.92520e-05
 Reference value :  1.92532e-05
 Reference value :  1.92538e-05
 Reference value :  1.92550e-05
 Reference value :  1.92580e-05
 Reference value :  1.92658e-05
 Reference value :  1.93117e-05
 Reference value :  1.95000e-05
 Reference value :  1.95005e-05
 Reference value :  1.95021e-05
 Reference value :  1.95031e-05
 Reference value :  1.95049e-05
 Reference value :  1.95066e-05
 Reference value :  1.95084e-05
 Reference value :  1.95104e-05
 Reference value :  1.95116e-05
 Reference value :  1.95188e-05
 Reference value :  1.95903e-05
 Reference value :  1.97501e-05
 Reference value :  1.97502e-05
 Reference value :  1.97502e-05
 Reference value :  1.97507e-05
 Reference value :  1.97520e-05
 Reference value :  1.97532e-05
 Reference value :  1.97537e-05
 Reference value :  1.97549e-05
 Reference value :  1.97563e-05
 Reference value :  1.97589e-05
 Reference value :  1.97696e-05
 Reference value :  1.99279e-05
 Reference value :  2.00000e-05
 Reference value :  2.00001e-05
 Reference value :  2.00001e-05
 Reference value :  2.00002e-05
 Reference value :  2.00005e-05
 Reference value :  2.00009e-05
 Reference value :  2.00016e-05
 Reference value :  2.00026e-05
 Reference value :  2.00031e-05
 Reference value :  2.00042e-05
 Reference value :  2.00052e-05
 Reference value :  2.00065e-05
 Reference value :  2.00103e-05
 Reference value :  2.00134e-05
 Reference value :  2.00145e-05
 Reference value :  2.00165e-05
 Reference value :  2.00187e-05
 Reference value :  2.00243e-05
 Reference value :  2.00507e-05
 Reference value :  2.01002e-05
 Reference value :  2.01558e-05
 Reference value :  2.02501e-05
 Reference value :  2.02502e-05
 Reference value :  2.02503e-05
 Reference value :  2.02511e-05
 Reference value :  2.02520e-05
 Reference value :  2.02538e-05
 Reference value :  2.02557e-05
 Reference value :  2.02597e-05
 Reference value :  2.02724e-05
 Reference value :  2.03646e-05
 Reference value :  2.05005e-05
 Reference value :  2.05015e-05
 Reference value :  2.05020e-05
 Reference value :  2.05030e-05
 Reference value :  2.05041e-05
 Reference value :  2.05056e-05
 Reference value :  2.05062e-05
 Reference value :  2.05079e-05
 Reference value :  2.05088e-05
 Reference value :  2.05098e-05
 Reference value :  2.05122e-05
 Reference value :  2.05190e-05
 Reference value :  2.05691e-05
 Reference value :  2.07501e-05
 Reference value :  2.07501e-05
 Reference value :  2.07502e-05
 Reference value :  2.07503e-05
 Reference value :  2.07504e-05
 Reference value :  2.07511e-05
 Reference value :  2.07520e-05
 Reference value :  2.07532e-05
 Reference value :  2.07543e-05
 Reference value :  2.07555e-05
 Reference value :  2.07563e-05
 Reference value :  2.07589e-05
 Reference value :  2.07697e-05
 Reference value :  2.08447e-05
 Reference value :  2.10000e-05
 Reference value :  2.10001e-05
 Reference value :  2.10002e-05
 Reference value :  2.10009e-05
 Reference value :  2.10016e-05
 Reference value :  2.10031e-05
 Reference value :  2.10047e-05
 Reference value :  2.10058e-05
 Reference value :  2.10087e-05
 Reference value :  2.10119e-05
 Reference value :  2.10145e-05
 Reference value :  2.10165e-05
 Reference value :  2.10187e-05
 Reference value :  2.10219e-05
 Reference value :  2.10291e-05
 Reference value :  2.10403e-05
 Reference value :  2.10465e-05
 Reference value :  2.10510e-05
 Reference value :  2.10559e-05
 Reference value :  2.10611e-05
 Reference value :  2.10723e-05
 Reference value :  2.10860e-05
 Reference value :  2.11305e-05
 Reference value :  2.11657e-05
 Reference value :  2.12246e-05
 Reference value :  2.12501e-05
 Reference value :  2.12502e-05
 Reference value :  2.12502e-05
 Reference value :  2.12504e-05
 Reference value :  2.12511e-05
 Reference value :  2.12520e-05
 Reference value :  2.12532e-05
 Reference value :  2.12538e-05
 Reference value :  2.12550e-05
 Reference value :  2.12564e-05
 Reference value :  2.12596e-05
 Reference value :  2.12723e-05
 Reference value :  2.13116e-05
 Reference value :  2.15000e-05
 Reference value :  2.15000e-05
 Reference value :  2.15001e-05
 Reference value :  2.15001e-05
 Reference value :  2.15002e-05
 Reference value :  2.15005e-05
 Reference value :  2.15009e-05
 Reference value :  2.15016e-05
 Reference value :  2.15026e-05
 Reference value :  2.15031e-05
 Reference value :  2.15042e-05
 Reference value :  2.15057e-05
 Reference value :  2.15063e-05
 Reference value :  2.15079e-05
 Reference value :  2.15098e-05
 Reference value :  2.15144e-05
 Reference value :  2.15406e-05
 Reference value :  2.17424e-05
 Reference value :  2.17501e-05
 Reference value :  2.17502e-05
 Reference value :  2.17502e-05
 Reference value :  2.17503e-05
 Reference value :  2.17504e-05
 Reference value :  2.17511e-05
 Reference value :  2.17520e-05
 Reference value :  2.17532e-05
 Reference value :  2.17538e-05
 Reference value :  2.17549e-05
 Reference value :  2.17563e-05
 Reference value :  2.17613e-05
 Reference value :  2.17811e-05
 Reference value :  2.19361e-05
 Reference value :  2.20011e-05
 Reference value :  2.20046e-05
 Reference value :  2.20058e-05
 Reference value :  2.20067e-05
 Reference value :  2.20090e-05
 Reference value :  2.20117e-05
 Reference value :  2.20130e-05
 Reference value :  2.20141e-05
 Reference value :  2.20164e-05
 Reference value :  2.20186e-05
 Reference value :  2.20234e-05
 Reference value :  2.20302e-05
 Reference value :  2.20387e-05
 Reference value :  2.20432e-05
 Reference value :  2.20466e-05
 Reference value :  2.20557e-05
 Reference value :  2.20673e-05
 Reference value :  2.20806e-05
 Reference value :  2.21047e-05
 Reference value :  2.21646e-05
 Reference value :  2.22501e-05
 Reference value :  2.22501e-05
 Reference value :  2.22502e-05
 Reference value :  2.22502e-05
 Reference value :  2.22504e-05
 Reference value :  2.22511e-05
 Reference value :  2.22520e-05
 Reference value :  2.22525e-05
 Reference value :  2.22531e-05
 Reference value :  2.22536e-05
 Reference value :  2.22548e-05
 Reference value :  2.22562e-05
 Reference value :  2.22589e-05
 Reference value :  2.22702e-05
 Reference value :  2.23411e-05
 Reference value :  2.25000e-05
 Reference value :  2.25001e-05
 Reference value :  2.25002e-05
 Reference value :  2.25005e-05
 Reference value :  2.25012e-05
 Reference value :  2.25016e-05
 Reference value :  2.25025e-05
 Reference value :  2.25030e-05
 Reference value :  2.25041e-05
 Reference value :  2.25056e-05
 Reference value :  2.25062e-05
 Reference value :  2.25079e-05
 Reference value :  2.25099e-05
 Reference value :  2.25122e-05
 Reference value :  2.25405e-05
 Reference value :  2.27501e-05
 Reference value :  2.27502e-05
 Reference value :  2.27503e-05
 Reference value :  2.27504e-05
 Reference value :  2.27511e-05
 Reference value :  2.27520e-05
 Reference value :  2.27532e-05
 Reference value :  2.27544e-05
 Reference value :  2.27555e-05
 Reference value :  2.27562e-05
 Reference value :  2.27578e-05
 Reference value :  2.27604e-05
 Reference value :  2.27647e-05
 Reference value :  2.27843e-05
 Reference value :  2.29037e-05
 Reference value :  2.30015e-05
 Reference value :  2.30046e-05
 Reference value :  2.30062e-05
 Reference value :  2.30090e-05
 Reference value :  2.30101e-05
 Reference value :  2.30123e-05
 Reference value :  2.30143e-05
 Reference value :  2.30170e-05
 Reference value :  2.30216e-05
 Reference value :  2.30357e-05
 Reference value :  2.30502e-05
 Reference value :  2.30549e-05
 Reference value :  2.30657e-05
 Reference value :  2.30815e-05
 Reference value :  2.31473e-05
 Reference value :  2.32501e-05
 Reference value :  2.32502e-05
 Reference value :  2.32503e-05
 Reference value :  2.32507e-05
 Reference value :  2.32516e-05
 Reference value :  2.32520e-05
 Reference value :  2.32532e-05
 Reference value :  2.32543e-05
 Reference value :  2.32555e-05
 Reference value :  2.32592e-05
 Reference value :  2.32836e-05
 Reference value :  2.33334e-05
 Reference value :  2.33901e-05
 Reference value :  2.34888e-05
 Reference value :  2.35000e-05
 Reference value :  2.35001e-05
 Reference value :  2.35002e-05
 Reference value :  2.35005e-05
 Reference value :  2.35009e-05
 Reference value :  2.35016e-05
 Reference value :  2.35025e-05
 Reference value :  2.35036e-05
 Reference value :  2.35056e-05
 Reference value :  2.35062e-05
 Reference value :  2.35079e-05
 Reference value :  2.35110e-05
 Reference value :  2.35263e-05
 Reference value :  2.36044e-05
 Reference value :  2.37501e-05
 Reference value :  2.37502e-05
 Reference value :  2.37502e-05
 Reference value :  2.37503e-05
 Reference value :  2.37507e-05
 Reference value :  2.37516e-05
 Reference value :  2.37520e-05
 Reference value :  2.37525e-05
 Reference value :  2.37532e-05
 Reference value :  2.37538e-05
 Reference value :  2.37549e-05
 Reference value :  2.37562e-05
 Reference value :  2.37589e-05
 Reference value :  2.37647e-05
 Reference value :  2.38015e-05
 Reference value :  2.40000e-05
 Reference value :  2.40000e-05
 Reference value :  2.40001e-05
 Reference value :  2.40002e-05
 Reference value :  2.40003e-05
 Reference value :  2.40009e-05
 Reference value :  2.40016e-05
 Reference value :  2.40031e-05
 Reference value :  2.40047e-05
 Reference value :  2.40057e-05
 Reference value :  2.40081e-05
 Reference value :  2.40101e-05
 Reference value :  2.40121e-05
 Reference value :  2.40137e-05
 Reference value :  2.40155e-05
 Reference value :  2.40164e-05
 Reference value :  2.40184e-05
 Reference value :  2.40233e-05
 Reference value :  2.40259e-05
 Reference value :  2.40280e-05
 Reference value :  2.40331e-05
 Reference value :  2.40473e-05
 Reference value :  2.41050e-05
 Reference value :  2.42501e-05
 Reference value :  2.42501e-05
 Reference value :  2.42502e-05
 Reference value :  2.42502e-05
 Reference value :  2.42504e-05
 Reference value :  2.42516e-05
 Reference value :  2.42525e-05
 Reference value :  2.42538e-05
 Reference value :  2.42550e-05
 Reference value :  2.42564e-05
 Reference value :  2.42625e-05
 Reference value :  2.42855e-05
 Reference value :  2.45000e-05
 Reference value :  2.45001e-05
 Reference value :  2.45002e-05
 Reference value :  2.45005e-05
 Reference value :  2.45012e-05
 Reference value :  2.45021e-05
 Reference value :  2.45031e-05
 Reference value :  2.45049e-05
 Reference value :  2.45063e-05
 Reference value :  2.45079e-05
 Reference value :  2.45098e-05
 Reference value :  2.45121e-05
 Reference value :  2.45265e-05
 Reference value :  2.46319e-05
 Reference value :  2.47501e-05
 Reference value :  2.47502e-05
 Reference value :  2.47502e-05
 Reference value :  2.47503e-05
 Reference value :  2.47504e-05
 Reference value :  2.47511e-05
 Reference value :  2.47520e-05
 Reference value :  2.47532e-05
 Reference value :  2.47538e-05
 Reference value :  2.47549e-05
 Reference value :  2.47563e-05
 Reference value :  2.47590e-05
 Reference value :  2.47699e-05
 Reference value :  2.48465e-05
 Reference value :  2.50000e-05
 Reference value :  2.50001e-05
 Reference value :  2.50002e-05
 Reference value :  2.50005e-05
 Reference value :  2.50009e-05
 Reference value :  2.50016e-05
 Reference value :  2.50026e-05
 Reference value :  2.50031e-05
 Reference value :  2.50042e-05
 Reference value :  2.50053e-05
 Reference value :  2.50065e-05
 Reference value :  2.50082e-05
 Reference value :  2.50101e-05
 Reference value :  2.50178e-05
 Reference value :  2.50717e-05
 Reference value :  2.52501e-05
 Reference value :  2.52502e-05
 Reference value :  2.52503e-05
 Reference value :  2.52507e-05
 Reference value :  2.52516e-05
 Reference value :  2.52525e-05
 Reference value :  2.52539e-05
 Reference value :  2.52568e-05
 Reference value :  2.52631e-05
 Reference value :  2.53191e-05
 Reference value :  2.55000e-05
 Reference value :  2.55000e-05
 Reference value :  2.55000e-05
 Reference value :  2.55000e-05
 Reference value :  2.55000e-05
 Reference value :  2.55001e-05
 Reference value :  2.55007e-05
 Reference value :  2.55020e-05
 Reference value :  2.55031e-05
 Reference value :  2.55042e-05
 Reference value :  2.55046e-05
 Reference value :  2.55058e-05
 Reference value :  2.55079e-05
 Reference value :  2.55169e-05
 Reference value :  2.55229e-05
 Reference value :  2.55290e-05
 Reference value :  2.55332e-05
 Reference value :  2.55397e-05
 Reference value :  2.55487e-05
 Reference value :  2.55646e-05
 Reference value :  2.56022e-05
 Reference value :  2.57501e-05
 Reference value :  2.57502e-05
 Reference value :  2.57503e-05
 Reference value :  2.57511e-05
 Reference value :  2.57525e-05
 Reference value :  2.57538e-05
 Reference value :  2.57550e-05
 Reference value :  2.57579e-05
 Reference value :  2.57717e-05
 Reference value :  2.59604e-05
 Reference value :  2.60000e-05
 Reference value :  2.60001e-05
 Reference value :  2.60002e-05
 Reference value :  2.60009e-05
 Reference value :  2.60016e-05
 Reference value :  2.60031e-05
 Reference value :  2.60049e-05
 Reference value :  2.60087e-05
 Reference value :  2.60113e-05
 Reference value :  2.60126e-05
 Reference value :  2.60179e-05
 Reference value :  2.60486e-05
 Reference value :  2.62501e-05
 Reference value :  2.62502e-05
 Reference value :  2.62503e-05
 Reference value :  2.62511e-05
 Reference value :  2.62520e-05
 Reference value :  2.62532e-05
 Reference value :  2.62543e-05
 Reference value :  2.62555e-05
 Reference value :  2.62572e-05
 Reference value :  2.62699e-05
 Reference value :  2.64339e-05
 Reference value :  2.65011e-05
 Reference value :  2.65044e-05
 Reference value :  2.65064e-05
 Reference value :  2.65097e-05
 Reference value :  2.65116e-05
 Reference value :  2.65129e-05
 Reference value :  2.65170e-05
 Reference value :  2.65213e-05
 Reference value :  2.65310e-05
 Reference value :  2.65724e-05
 Reference value :  2.66485e-05
 Reference value :  2.66898e-05
 Reference value :  2.67188e-05
 Reference value :  2.67295e-05
 Reference value :  2.67391e-05
 Reference value :  2.67501e-05
 Reference value :  2.67502e-05
 Reference value :  2.67503e-05
 Reference value :  2.67507e-05
 Reference value :  2.67516e-05
 Reference value :  2.67520e-05
 Reference value :  2.67531e-05
 Reference value :  2.67536e-05
 Reference value :  2.67548e-05
 Reference value :  2.67562e-05
 Reference value :  2.67612e-05
 Reference value :  2.67818e-05
 Reference value :  2.69243e-05
 Reference value :  2.70000e-05
 Reference value :  2.70001e-05
 Reference value :  2.70002e-05
 Reference value :  2.70003e-05
 Reference value :  2.70009e-05
 Reference value :  2.70016e-05
 Reference value :  2.70025e-05
 Reference value :  2.70030e-05
 Reference value :  2.70041e-05
 Reference value :  2.70056e-05
 Reference value :  2.70062e-05
 Reference value :  2.70079e-05
 Reference value :  2.70099e-05
 Reference value :  2.70145e-05
 Reference value :  2.70404e-05
 Reference value :  2.72399e-05
 Reference value :  2.72501e-05
 Reference value :  2.72502e-05
 Reference value :  2.72502e-05
 Reference value :  2.72504e-05
 Reference value :  2.72511e-05
 Reference value :  2.72520e-05
 Reference value :  2.72532e-05
 Reference value :  2.72538e-05
 Reference value :  2.72549e-05
 Reference value :  2.72562e-05
 Reference value :  2.72578e-05
 Reference value :  2.72602e-05
 Reference value :  2.72619e-05
 Reference value :  2.72739e-05
 Reference value :  2.73275e-05
 Reference value :  2.75000e-05
 Reference value :  2.75000e-05
 Reference value :  2.75001e-05
 Reference value :  2.75001e-05
 Reference value :  2.75002e-05
 Reference value :  2.75003e-05
 Reference value :  2.75009e-05
 Reference value :  2.75016e-05
 Reference value :  2.75021e-05
 Reference value :  2.75031e-05
 Reference value :  2.75042e-05
 Reference value :  2.75047e-05
 Reference value :  2.75052e-05
 Reference value :  2.75064e-05
 Reference value :  2.75081e-05
 Reference value :  2.75101e-05
 Reference value :  2.75120e-05
 Reference value :  2.75137e-05
 Reference value :  2.75153e-05
 Reference value :  2.75171e-05
 Reference value :  2.75181e-05
 Reference value :  2.75209e-05
 Reference value :  2.75317e-05
 Reference value :  2.75482e-05
 Reference value :  2.75564e-05
 Reference value :  2.75605e-05
 Reference value :  2.75738e-05
 Reference value :  2.75960e-05
 Reference value :  2.76597e-05
 Reference value :  2.77501e-05
 Reference value :  2.77501e-05
 Reference value :  2.77502e-05
 Reference value :  2.77502e-05
 Reference value :  2.77504e-05
 Reference value :  2.77511e-05
 Reference value :  2.77520e-05
 Reference value :  2.77532e-05
 Reference value :  2.77538e-05
 Reference value :  2.77550e-05
 Reference value :  2.77580e-05
 Reference value :  2.77658e-05
 Reference value :  2.78117e-05
 Reference value :  2.80000e-05
 Reference value :  2.80005e-05
 Reference value :  2.80021e-05
 Reference value :  2.80031e-05
 Reference value :  2.80043e-05
 Reference value :  2.80066e-05
 Reference value :  2.80084e-05
 Reference value :  2.80104e-05
 Reference value :  2.80129e-05
 Reference value :  2.80250e-05
 Reference value :  2.80544e-05
 Reference value :  2.82501e-05
 Reference value :  2.82502e-05
 Reference value :  2.82502e-05
 Reference value :  2.82503e-05
 Reference value :  2.82507e-05
 Reference value :  2.82511e-05
 Reference value :  2.82520e-05
 Reference value :  2.82532e-05
 Reference value :  2.82543e-05
 Reference value :  2.82563e-05
 Reference value :  2.82643e-05
 Reference value :  2.84278e-05
 Reference value :  2.85001e-05
 Reference value :  2.85002e-05
 Reference value :  2.85009e-05
 Reference value :  2.85016e-05
 Reference value :  2.85031e-05
 Reference value :  2.85042e-05
 Reference value :  2.85052e-05
 Reference value :  2.85073e-05
 Reference value :  2.85103e-05
 Reference value :  2.85134e-05
 Reference value :  2.85156e-05
 Reference value :  2.85176e-05
 Reference value :  2.85199e-05
 Reference value :  2.85291e-05
 Reference value :  2.85507e-05
 Reference value :  2.86008e-05
 Reference value :  2.86605e-05
 Reference value :  2.87314e-05
 Reference value :  2.87501e-05
 Reference value :  2.87502e-05
 Reference value :  2.87504e-05
 Reference value :  2.87516e-05
 Reference value :  2.87525e-05
 Reference value :  2.87538e-05
 Reference value :  2.87550e-05
 Reference value :  2.87580e-05
 Reference value :  2.87856e-05
 Reference value :  2.90005e-05
 Reference value :  2.90020e-05
 Reference value :  2.90036e-05
 Reference value :  2.90048e-05
 Reference value :  2.90062e-05
 Reference value :  2.90079e-05
 Reference value :  2.90098e-05
 Reference value :  2.90122e-05
 Reference value :  2.90261e-05
 Reference value :  2.92406e-05
 Reference value :  2.92501e-05
 Reference value :  2.92502e-05
 Reference value :  2.92502e-05
 Reference value :  2.92503e-05
 Reference value :  2.92507e-05
 Reference value :  2.92516e-05
 Reference value :  2.92520e-05
 Reference value :  2.92532e-05
 Reference value :  2.92538e-05
 Reference value :  2.92549e-05
 Reference value :  2.92563e-05
 Reference value :  2.92589e-05
 Reference value :  2.92697e-05
 Reference value :  2.93447e-05
 Reference value :  2.95000e-05
 Reference value :  2.95001e-05
 Reference value :  2.95002e-05
 Reference value :  2.95005e-05
 Reference value :  2.95012e-05
 Reference value :  2.95021e-05
 Reference value :  2.95031e-05
 Reference value :  2.95042e-05
 Reference value :  2.95052e-05
 Reference value :  2.95065e-05
 Reference value :  2.95103e-05
 Reference value :  2.95134e-05
 Reference value :  2.95156e-05
 Reference value :  2.95187e-05
 Reference value :  2.95291e-05
 Reference value :  2.95477e-05
 Reference value :  2.95573e-05
 Reference value :  2.95685e-05
 Reference value :  2.95877e-05
 Reference value :  2.96545e-05
 Reference value :  2.97073e-05
 Reference value :  2.97234e-05
 Reference value :  2.97502e-05
 Reference value :  2.97504e-05
 Reference value :  2.97516e-05
 Reference value :  2.97532e-05
 Reference value :  2.97550e-05
 Reference value :  2.97596e-05
 Reference value :  2.98642e-05
 Reference value :  3.00001e-05
 Reference value :  3.00003e-05
 Reference value :  3.00016e-05
 Reference value :  3.00031e-05
 Reference value :  3.00057e-05
 Reference value :  3.00079e-05
 Reference value :  3.00122e-05
 Reference value :  3.02420e-05
 Reference value :  3.02502e-05
 Reference value :  3.02504e-05
 Reference value :  3.02520e-05
 Reference value :  3.02538e-05
 Reference value :  3.02555e-05
 Reference value :  3.02613e-05
 Reference value :  3.05011e-05
 Reference value :  3.05046e-05
 Reference value :  3.05067e-05
 Reference value :  3.05102e-05
 Reference value :  3.05117e-05
 Reference value :  3.05141e-05
 Reference value :  3.05164e-05
 Reference value :  3.05185e-05
 Reference value :  3.05232e-05
 Reference value :  3.05324e-05
 Reference value :  3.05427e-05
 Reference value :  3.05501e-05
 Reference value :  3.05598e-05
 Reference value :  3.05724e-05
 Reference value :  3.06005e-05
 Reference value :  3.07501e-05
 Reference value :  3.07502e-05
 Reference value :  3.07502e-05
 Reference value :  3.07504e-05
 Reference value :  3.07511e-05
 Reference value :  3.07520e-05
 Reference value :  3.07531e-05
 Reference value :  3.07536e-05
 Reference value :  3.07548e-05
 Reference value :  3.07573e-05
 Reference value :  3.07702e-05
 Reference value :  3.09200e-05
 Reference value :  3.10000e-05
 Reference value :  3.10001e-05
 Reference value :  3.10002e-05
 Reference value :  3.10005e-05
 Reference value :  3.10016e-05
 Reference value :  3.10030e-05
 Reference value :  3.10049e-05
 Reference value :  3.10062e-05
 Reference value :  3.10079e-05
 Reference value :  3.10089e-05
 Reference value :  3.10111e-05
 Reference value :  3.10191e-05
 Reference value :  3.10690e-05
 Reference value :  3.12400e-05
 Reference value :  3.12501e-05
 Reference value :  3.12502e-05
 Reference value :  3.12502e-05
 Reference value :  3.12503e-05
 Reference value :  3.12507e-05
 Reference value :  3.12516e-05
 Reference value :  3.12520e-05
 Reference value :  3.12532e-05
 Reference value :  3.12538e-05
 Reference value :  3.12549e-05
 Reference value :  3.12562e-05
 Reference value :  3.12579e-05
 Reference value :  3.12604e-05
 Reference value :  3.12679e-05
 Reference value :  3.13016e-05
 Reference value :  3.15000e-05
 Reference value :  3.15001e-05
 Reference value :  3.15001e-05
 Reference value :  3.15002e-05
 Reference value :  3.15003e-05
 Reference value :  3.15009e-05
 Reference value :  3.15016e-05
 Reference value :  3.15026e-05
 Reference value :  3.15031e-05
 Reference value :  3.15042e-05
 Reference value :  3.15052e-05
 Reference value :  3.15064e-05
 Reference value :  3.15081e-05
 Reference value :  3.15101e-05
 Reference value :  3.15120e-05
 Reference value :  3.15137e-05
 Reference value :  3.15152e-05
 Reference value :  3.15171e-05
 Reference value :  3.15180e-05
 Reference value :  3.15208e-05
 Reference value :  3.15256e-05
 Reference value :  3.15344e-05
 Reference value :  3.15391e-05
 Reference value :  3.15435e-05
 Reference value :  3.15468e-05
 Reference value :  3.15539e-05
 Reference value :  3.15664e-05
 Reference value :  3.16035e-05
 Reference value :  3.16815e-05
 Reference value :  3.17501e-05
 Reference value :  3.17502e-05
 Reference value :  3.17503e-05
 Reference value :  3.17504e-05
 Reference value :  3.17511e-05
 Reference value :  3.17520e-05
 Reference value :  3.17532e-05
 Reference value :  3.17544e-05
 Reference value :  3.17564e-05
 Reference value :  3.17723e-05
 Reference value :  3.19690e-05
 Reference value :  3.20001e-05
 Reference value :  3.20002e-05
 Reference value :  3.20009e-05
 Reference value :  3.20021e-05
 Reference value :  3.20036e-05
 Reference value :  3.20063e-05
 Reference value :  3.20079e-05
 Reference value :  3.20109e-05
 Reference value :  3.20265e-05
 Reference value :  3.21319e-05
 Reference value :  3.22501e-05
 Reference value :  3.22502e-05
 Reference value :  3.22503e-05
 Reference value :  3.22507e-05
 Reference value :  3.22520e-05
 Reference value :  3.22532e-05
 Reference value :  3.22544e-05
 Reference value :  3.22555e-05
 Reference value :  3.22572e-05
 Reference value :  3.22700e-05
 Reference value :  3.25000e-05
 Reference value :  3.25001e-05
 Reference value :  3.25002e-05
 Reference value :  3.25005e-05
 Reference value :  3.25009e-05
 Reference value :  3.25016e-05
 Reference value :  3.25026e-05
 Reference value :  3.25036e-05
 Reference value :  3.25052e-05
 Reference value :  3.25065e-05
 Reference value :  3.25086e-05
 Reference value :  3.25103e-05
 Reference value :  3.25118e-05
 Reference value :  3.25145e-05
 Reference value :  3.25165e-05
 Reference value :  3.25187e-05
 Reference value :  3.25244e-05
 Reference value :  3.25316e-05
 Reference value :  3.25346e-05
 Reference value :  3.25475e-05
 Reference value :  3.25678e-05
 Reference value :  3.26081e-05
 Reference value :  3.27501e-05
 Reference value :  3.27502e-05
 Reference value :  3.27503e-05
 Reference value :  3.27507e-05
 Reference value :  3.27520e-05
 Reference value :  3.27532e-05
 Reference value :  3.27543e-05
 Reference value :  3.27597e-05
 Reference value :  3.28133e-05
 Reference value :  3.30000e-05
 Reference value :  3.30001e-05
 Reference value :  3.30002e-05
 Reference value :  3.30009e-05
 Reference value :  3.30016e-05
 Reference value :  3.30030e-05
 Reference value :  3.30049e-05
 Reference value :  3.30062e-05
 Reference value :  3.30079e-05
 Reference value :  3.30111e-05
 Reference value :  3.30262e-05
 Reference value :  3.32400e-05
 Reference value :  3.32501e-05
 Reference value :  3.32502e-05
 Reference value :  3.32503e-05
 Reference value :  3.32511e-05
 Reference value :  3.32520e-05
 Reference value :  3.32532e-05
 Reference value :  3.32544e-05
 Reference value :  3.32555e-05
 Reference value :  3.32570e-05
 Reference value :  3.32589e-05
 Reference value :  3.32647e-05
 Reference value :  3.32844e-05
 Reference value :  3.34037e-05
 Reference value :  3.35015e-05
 Reference value :  3.35046e-05
 Reference value :  3.35062e-05
 Reference value :  3.35091e-05
 Reference value :  3.35113e-05
 Reference value :  3.35190e-05
 Reference value :  3.35429e-05
 Reference value :  3.36368e-05
 Reference value :  3.37001e-05
 Reference value :  3.37501e-05
 Reference value :  3.37502e-05
 Reference value :  3.37504e-05
 Reference value :  3.37516e-05
 Reference value :  3.37532e-05
 Reference value :  3.37556e-05
 Reference value :  3.37582e-05
 Reference value :  3.37662e-05
 Reference value :  3.38149e-05
 Reference value :  3.40000e-05
 Reference value :  3.40000e-05
 Reference value :  3.40000e-05
 Reference value :  3.40000e-05
 Reference value :  3.40001e-05
 Reference value :  3.40001e-05
 Reference value :  3.40004e-05
 Reference value :  3.40016e-05
 Reference value :  3.40025e-05
 Reference value :  3.40031e-05
 Reference value :  3.40036e-05
 Reference value :  3.40046e-05
 Reference value :  3.40065e-05
 Reference value :  3.40123e-05
 Reference value :  3.40228e-05
 Reference value :  3.40290e-05
 Reference value :  3.40333e-05
 Reference value :  3.40435e-05
 Reference value :  3.40599e-05
 Reference value :  3.41383e-05
 Reference value :  3.42502e-05
 Reference value :  3.42504e-05
 Reference value :  3.42520e-05
 Reference value :  3.42538e-05
 Reference value :  3.42556e-05
 Reference value :  3.42655e-05
 Reference value :  3.45000e-05
 Reference value :  3.45001e-05
 Reference value :  3.45009e-05
 Reference value :  3.45026e-05
 Reference value :  3.45036e-05
 Reference value :  3.45087e-05
 Reference value :  3.45113e-05
 Reference value :  3.45161e-05
 Reference value :  3.45487e-05
 Reference value :  3.47501e-05
 Reference value :  3.47503e-05
 Reference value :  3.47516e-05
 Reference value :  3.47538e-05
 Reference value :  3.47555e-05
 Reference value :  3.47590e-05
 Reference value :  3.48464e-05
 Reference value :  3.50001e-05
 Reference value :  3.50002e-05
 Reference value :  3.50009e-05
 Reference value :  3.50016e-05
 Reference value :  3.50031e-05
 Reference value :  3.50047e-05
 Reference value :  3.50058e-05
 Reference value :  3.50103e-05
 Reference value :  3.50134e-05
 Reference value :  3.50145e-05
 Reference value :  3.50165e-05
 Reference value :  3.50187e-05
 Reference value :  3.50243e-05
 Reference value :  3.50904e-05
 Reference value :  3.51861e-05
 Reference value :  3.52176e-05
 Reference value :  3.52286e-05
 Reference value :  3.52501e-05
 Reference value :  3.52502e-05
 Reference value :  3.52503e-05
 Reference value :  3.52511e-05
 Reference value :  3.52520e-05
 Reference value :  3.52537e-05
 Reference value :  3.52557e-05
 Reference value :  3.52596e-05
 Reference value :  3.52856e-05
 Reference value :  3.55000e-05
 Reference value :  3.55001e-05
 Reference value :  3.55001e-05
 Reference value :  3.55003e-05
 Reference value :  3.55009e-05
 Reference value :  3.55016e-05
 Reference value :  3.55030e-05
 Reference value :  3.55041e-05
 Reference value :  3.55056e-05
 Reference value :  3.55062e-05
 Reference value :  3.55080e-05
 Reference value :  3.55111e-05
 Reference value :  3.55190e-05
 Reference value :  3.55687e-05
 Reference value :  3.57501e-05
 Reference value :  3.57502e-05
 Reference value :  3.57503e-05
 Reference value :  3.57511e-05
 Reference value :  3.57520e-05
 Reference value :  3.57538e-05
 Reference value :  3.57555e-05
 Reference value :  3.57570e-05
 Reference value :  3.57604e-05
 Reference value :  3.57742e-05
 Reference value :  3.59043e-05
 Reference value :  3.60017e-05
 Reference value :  3.60052e-05
 Reference value :  3.60070e-05
 Reference value :  3.60102e-05
 Reference value :  3.60129e-05
 Reference value :  3.60140e-05
 Reference value :  3.60162e-05
 Reference value :  3.60172e-05
 Reference value :  3.60195e-05
 Reference value :  3.60253e-05
 Reference value :  3.60448e-05
 Reference value :  3.60570e-05
 Reference value :  3.60663e-05
 Reference value :  3.60862e-05
 Reference value :  3.61254e-05
 Reference value :  3.62380e-05
 Reference value :  3.62501e-05
 Reference value :  3.62502e-05
 Reference value :  3.62503e-05
 Reference value :  3.62507e-05
 Reference value :  3.62516e-05
 Reference value :  3.62520e-05
 Reference value :  3.62531e-05
 Reference value :  3.62536e-05
 Reference value :  3.62549e-05
 Reference value :  3.62565e-05
 Reference value :  3.62593e-05
 Reference value :  3.62652e-05
 Reference value :  3.63006e-05
 Reference value :  3.64026e-05
 Reference value :  3.65000e-05
 Reference value :  3.65001e-05
 Reference value :  3.65001e-05
 Reference value :  3.65003e-05
 Reference value :  3.65009e-05
 Reference value :  3.65016e-05
 Reference value :  3.65031e-05
 Reference value :  3.65042e-05
 Reference value :  3.65057e-05
 Reference value :  3.65063e-05
 Reference value :  3.65080e-05
 Reference value :  3.65099e-05
 Reference value :  3.65144e-05
 Reference value :  3.65718e-05
 Reference value :  3.67501e-05
 Reference value :  3.67502e-05
 Reference value :  3.67507e-05
 Reference value :  3.67520e-05
 Reference value :  3.67538e-05
 Reference value :  3.67549e-05
 Reference value :  3.67563e-05
 Reference value :  3.67590e-05
 Reference value :  3.67699e-05
 Reference value :  3.68464e-05
 Reference value :  3.70000e-05
 Reference value :  3.70001e-05
 Reference value :  3.70001e-05
 Reference value :  3.70002e-05
 Reference value :  3.70005e-05
 Reference value :  3.70009e-05
 Reference value :  3.70016e-05
 Reference value :  3.70031e-05
 Reference value :  3.70042e-05
 Reference value :  3.70052e-05
 Reference value :  3.70073e-05
 Reference value :  3.70103e-05
 Reference value :  3.70119e-05
 Reference value :  3.70134e-05
 Reference value :  3.70145e-05
 Reference value :  3.70156e-05
 Reference value :  3.70165e-05
 Reference value :  3.70187e-05
 Reference value :  3.70219e-05
 Reference value :  3.70291e-05
 Reference value :  3.70374e-05
 Reference value :  3.70509e-05
 Reference value :  3.70760e-05
 Reference value :  3.71316e-05
 Reference value :  3.71599e-05
 Reference value :  3.71992e-05
 Reference value :  3.72501e-05
 Reference value :  3.72501e-05
 Reference value :  3.72502e-05
 Reference value :  3.72502e-05
 Reference value :  3.72504e-05
 Reference value :  3.72516e-05
 Reference value :  3.72525e-05
 Reference value :  3.72538e-05
 Reference value :  3.72550e-05
 Reference value :  3.72597e-05
 Reference value :  3.72724e-05
 Reference value :  3.75000e-05
 Reference value :  3.75001e-05
 Reference value :  3.75001e-05
 Reference value :  3.75002e-05
 Reference value :  3.75009e-05
 Reference value :  3.75021e-05
 Reference value :  3.75036e-05
 Reference value :  3.75057e-05
 Reference value :  3.75070e-05
 Reference value :  3.75089e-05
 Reference value :  3.75122e-05
 Reference value :  3.75405e-05
 Reference value :  3.77501e-05
 Reference value :  3.77502e-05
 Reference value :  3.77504e-05
 Reference value :  3.77516e-05
 Reference value :  3.77525e-05
 Reference value :  3.77538e-05
 Reference value :  3.77549e-05
 Reference value :  3.77563e-05
 Reference value :  3.77590e-05
 Reference value :  3.77700e-05
 Reference value :  3.78475e-05
 Reference value :  3.80000e-05
 Reference value :  3.80000e-05
 Reference value :  3.80001e-05
 Reference value :  3.80002e-05
 Reference value :  3.80009e-05
 Reference value :  3.80021e-05
 Reference value :  3.80036e-05
 Reference value :  3.80052e-05
 Reference value :  3.80087e-05
 Reference value :  3.80119e-05
 Reference value :  3.80145e-05
 Reference value :  3.80165e-05
 Reference value :  3.80187e-05
 Reference value :  3.80219e-05
 Reference value :  3.80292e-05
 Reference value :  3.80358e-05
 Reference value :  3.80497e-05
 Reference value :  3.80547e-05
 Reference value :  3.80597e-05
 Reference value :  3.80658e-05
 Reference value :  3.80793e-05
 Reference value :  3.80858e-05
 Reference value :  3.81699e-05
 Reference value :  3.82074e-05
 Reference value :  3.82493e-05
 Reference value :  3.82501e-05
 Reference value :  3.82502e-05
 Reference value :  3.82503e-05
 Reference value :  3.82516e-05
 Reference value :  3.82532e-05
 Reference value :  3.82544e-05
 Reference value :  3.82550e-05
 Reference value :  3.82565e-05
 Reference value :  3.82625e-05
 Reference value :  3.82856e-05
 Reference value :  3.84215e-05
 Reference value :  3.85013e-05
 Reference value :  3.85039e-05
 Reference value :  3.85053e-05
 Reference value :  3.85076e-05
 Reference value :  3.85106e-05
 Reference value :  3.85390e-05
 Reference value :  3.87502e-05
 Reference value :  3.87504e-05
 Reference value :  3.87516e-05
 Reference value :  3.87525e-05
 Reference value :  3.87543e-05
 Reference value :  3.87561e-05
 Reference value :  3.87775e-05
 Reference value :  3.90000e-05
 Reference value :  3.90002e-05
 Reference value :  3.90009e-05
 Reference value :  3.90021e-05
 Reference value :  3.90036e-05
 Reference value :  3.90052e-05
 Reference value :  3.90087e-05
 Reference value :  3.90119e-05
 Reference value :  3.90145e-05
 Reference value :  3.90175e-05
 Reference value :  3.90244e-05
 Reference value :  3.90426e-05
 Reference value :  3.90588e-05
 Reference value :  3.90979e-05
 Reference value :  3.92501e-05
 Reference value :  3.92502e-05
 Reference value :  3.92511e-05
 Reference value :  3.92520e-05
 Reference value :  3.92532e-05
 Reference value :  3.92537e-05
 Reference value :  3.92557e-05
 Reference value :  3.92597e-05
 Reference value :  3.92859e-05
 Reference value :  3.95000e-05
 Reference value :  3.95001e-05
 Reference value :  3.95003e-05
 Reference value :  3.95009e-05
 Reference value :  3.95016e-05
 Reference value :  3.95030e-05
 Reference value :  3.95041e-05
 Reference value :  3.95062e-05
 Reference value :  3.95089e-05
 Reference value :  3.95145e-05
 Reference value :  3.96256e-05
 Reference value :  3.97502e-05
 Reference value :  3.97503e-05
 Reference value :  3.97520e-05
 Reference value :  3.97538e-05
 Reference value :  3.97555e-05
 Reference value :  3.97579e-05
 Reference value :  3.97647e-05
 Reference value :  3.97742e-05
 Reference value :  3.98017e-05
 Reference value :  3.99048e-05
 Reference value :  4.00000e-05
 Reference value :  4.00001e-05
 Reference value :  4.00002e-05
 Reference value :  4.00009e-05
 Reference value :  4.00016e-05
 Reference value :  4.00031e-05
 Reference value :  4.00047e-05
 Reference value :  4.00057e-05
 Reference value :  4.00081e-05
 Reference value :  4.00092e-05
 Reference value :  4.00101e-05
 Reference value :  4.00120e-05
 Reference value :  4.00137e-05
 Reference value :  4.00153e-05
 Reference value :  4.00181e-05
 Reference value :  4.00227e-05
 Reference value :  4.00324e-05
 Reference value :  4.00408e-05
 Reference value :  4.00516e-05
 Reference value :  4.00842e-05
 Reference value :  4.02501e-05
 Reference value :  4.02502e-05
 Reference value :  4.02502e-05
 Reference value :  4.02504e-05
 Reference value :  4.02511e-05
 Reference value :  4.02520e-05
 Reference value :  4.02532e-05
 Reference value :  4.02544e-05
 Reference value :  4.02564e-05
 Reference value :  4.02658e-05
 Reference value :  4.03117e-05
 Reference value :  4.05000e-05
 Reference value :  4.05001e-05
 Reference value :  4.05002e-05
 Reference value :  4.05005e-05
 Reference value :  4.05012e-05
 Reference value :  4.05021e-05
 Reference value :  4.05031e-05
 Reference value :  4.05042e-05
 Reference value :  4.05057e-05
 Reference value :  4.05063e-05
 Reference value :  4.05079e-05
 Reference value :  4.05098e-05
 Reference value :  4.05121e-05
 Reference value :  4.05265e-05
 Reference value :  4.06319e-05
 Reference value :  4.07501e-05
 Reference value :  4.07502e-05
 Reference value :  4.07503e-05
 Reference value :  4.07516e-05
 Reference value :  4.07525e-05
 Reference value :  4.07538e-05
 Reference value :  4.07549e-05
 Reference value :  4.07563e-05
 Reference value :  4.07612e-05
 Reference value :  4.07810e-05
 Reference value :  4.08471e-05
 Reference value :  4.10012e-05
 Reference value :  4.10047e-05
 Reference value :  4.10077e-05
 Reference value :  4.10103e-05
 Reference value :  4.10118e-05
 Reference value :  4.10130e-05
 Reference value :  4.10152e-05
 Reference value :  4.10174e-05
 Reference value :  4.10211e-05
 Reference value :  4.10296e-05
 Reference value :  4.10339e-05
 Reference value :  4.10408e-05
 Reference value :  4.10482e-05
 Reference value :  4.10812e-05
 Reference value :  4.12426e-05
 Reference value :  4.12501e-05
 Reference value :  4.12502e-05
 Reference value :  4.12507e-05
 Reference value :  4.12520e-05
 Reference value :  4.12531e-05
 Reference value :  4.12542e-05
 Reference value :  4.12562e-05
 Reference value :  4.12702e-05
 Reference value :  4.15000e-05
 Reference value :  4.15001e-05
 Reference value :  4.15003e-05
 Reference value :  4.15012e-05
 Reference value :  4.15020e-05
 Reference value :  4.15030e-05
 Reference value :  4.15056e-05
 Reference value :  4.15069e-05
 Reference value :  4.15089e-05
 Reference value :  4.15122e-05
 Reference value :  4.16260e-05
 Reference value :  4.17502e-05
 Reference value :  4.17502e-05
 Reference value :  4.17507e-05
 Reference value :  4.17525e-05
 Reference value :  4.17538e-05
 Reference value :  4.17549e-05
 Reference value :  4.17562e-05
 Reference value :  4.17604e-05
 Reference value :  4.17742e-05
 Reference value :  4.20000e-05
 Reference value :  4.20001e-05
 Reference value :  4.20002e-05
 Reference value :  4.20009e-05
 Reference value :  4.20016e-05
 Reference value :  4.20026e-05
 Reference value :  4.20031e-05
 Reference value :  4.20041e-05
 Reference value :  4.20052e-05
 Reference value :  4.20063e-05
 Reference value :  4.20077e-05
 Reference value :  4.20093e-05
 Reference value :  4.20109e-05
 Reference value :  4.20163e-05
 Reference value :  4.20220e-05
 Reference value :  4.20404e-05
 Reference value :  4.20642e-05
 Reference value :  4.20818e-05
 Reference value :  4.21337e-05
 Reference value :  4.22501e-05
 Reference value :  4.22502e-05
 Reference value :  4.22502e-05
 Reference value :  4.22504e-05
 Reference value :  4.22516e-05
 Reference value :  4.22525e-05
 Reference value :  4.22539e-05
 Reference value :  4.22568e-05
 Reference value :  4.22601e-05
 Reference value :  4.22668e-05
 Reference value :  4.22892e-05
 Reference value :  4.24982e-05
 Reference value :  4.25000e-05
 Reference value :  4.25000e-05
 Reference value :  4.25000e-05
 Reference value :  4.25000e-05
 Reference value :  4.25001e-05
 Reference value :  4.25001e-05
 Reference value :  4.25002e-05
 Reference value :  4.25004e-05
 Reference value :  4.25012e-05
 Reference value :  4.25020e-05
 Reference value :  4.25031e-05
 Reference value :  4.25042e-05
 Reference value :  4.25052e-05
 Reference value :  4.25079e-05
 Reference value :  4.25229e-05
 Reference value :  4.25290e-05
 Reference value :  4.25333e-05
 Reference value :  4.25435e-05
 Reference value :  4.25673e-05
 Reference value :  4.26529e-05
 Reference value :  4.27502e-05
 Reference value :  4.27503e-05
 Reference value :  4.27516e-05
 Reference value :  4.27532e-05
 Reference value :  4.27550e-05
 Reference value :  4.27579e-05
 Reference value :  4.27717e-05
 Reference value :  4.29601e-05
 Reference value :  4.30001e-05
 Reference value :  4.30002e-05
 Reference value :  4.30009e-05
 Reference value :  4.30026e-05
 Reference value :  4.30042e-05
 Reference value :  4.30099e-05
 Reference value :  4.30142e-05
 Reference value :  4.30486e-05
 Reference value :  4.32501e-05
 Reference value :  4.32503e-05
 Reference value :  4.32516e-05
 Reference value :  4.32532e-05
 Reference value :  4.32549e-05
 Reference value :  4.32572e-05
 Reference value :  4.32808e-05
 Reference value :  4.35011e-05
 Reference value :  4.35044e-05
 Reference value :  4.35064e-05
 Reference value :  4.35085e-05
 Reference value :  4.35116e-05
 Reference value :  4.35129e-05
 Reference value :  4.35170e-05
 Reference value :  4.35195e-05
 Reference value :  4.35208e-05
 Reference value :  4.35247e-05
 Reference value :  4.35419e-05
 Reference value :  4.35810e-05
 Reference value :  4.36706e-05
 Reference value :  4.37166e-05
 Reference value :  4.37390e-05
 Reference value :  4.37501e-05
 Reference value :  4.37502e-05
 Reference value :  4.37503e-05
 Reference value :  4.37504e-05
 Reference value :  4.37516e-05
 Reference value :  4.37525e-05
 Reference value :  4.37536e-05
 Reference value :  4.37553e-05
 Reference value :  4.37588e-05
 Reference value :  4.37816e-05
 Reference value :  4.39160e-05
 Reference value :  4.40000e-05
 Reference value :  4.40001e-05
 Reference value :  4.40002e-05
 Reference value :  4.40003e-05
 Reference value :  4.40009e-05
 Reference value :  4.40016e-05
 Reference value :  4.40025e-05
 Reference value :  4.40030e-05
 Reference value :  4.40049e-05
 Reference value :  4.40062e-05
 Reference value :  4.40079e-05
 Reference value :  4.40111e-05
 Reference value :  4.40262e-05
 Reference value :  4.42397e-05
 Reference value :  4.42501e-05
 Reference value :  4.42502e-05
 Reference value :  4.42503e-05
 Reference value :  4.42511e-05
 Reference value :  4.42520e-05
 Reference value :  4.42538e-05
 Reference value :  4.42549e-05
 Reference value :  4.42562e-05
 Reference value :  4.42589e-05
 Reference value :  4.42644e-05
 Reference value :  4.42972e-05
 Reference value :  4.44880e-05
 Reference value :  4.45000e-05
 Reference value :  4.45001e-05
 Reference value :  4.45002e-05
 Reference value :  4.45003e-05
 Reference value :  4.45009e-05
 Reference value :  4.45016e-05
 Reference value :  4.45026e-05
 Reference value :  4.45036e-05
 Reference value :  4.45047e-05
 Reference value :  4.45057e-05
 Reference value :  4.45081e-05
 Reference value :  4.45101e-05
 Reference value :  4.45120e-05
 Reference value :  4.45137e-05
 Reference value :  4.45153e-05
 Reference value :  4.45171e-05
 Reference value :  4.45191e-05
 Reference value :  4.45257e-05
 Reference value :  4.45381e-05
 Reference value :  4.45529e-05
 Reference value :  4.45602e-05
 Reference value :  4.45745e-05
 Reference value :  4.45875e-05
 Reference value :  4.46410e-05
 Reference value :  4.47501e-05
 Reference value :  4.47502e-05
 Reference value :  4.47503e-05
 Reference value :  4.47511e-05
 Reference value :  4.47520e-05
 Reference value :  4.47538e-05
 Reference value :  4.47550e-05
 Reference value :  4.47580e-05
 Reference value :  4.47723e-05
 Reference value :  4.49689e-05
[...]
 Reference value :  1.64000e-04
 Reference value :  1.64000e-04
 Reference value :  1.64000e-04
 Reference value :  1.64000e-04
 Reference value :  1.64001e-04
 Reference value :  1.64002e-04
 Reference value :  1.64003e-04
 Reference value :  1.64003e-04
 Reference value :  1.64004e-04
 Reference value :  1.64006e-04
 Reference value :  1.64006e-04
 Reference value :  1.64008e-04
 Reference value :  1.64010e-04
 Reference value :  1.64012e-04
 Reference value :  1.64026e-04
 Reference value :  1.64132e-04
 Reference value :  1.64250e-04
 Reference value :  1.64250e-04
 Reference value :  1.64250e-04
 Reference value :  1.64251e-04
 Reference value :  1.64252e-04
 Reference value :  1.64253e-04
 Reference value :  1.64254e-04
 Reference value :  1.64255e-04
 Reference value :  1.64256e-04
 Reference value :  1.64259e-04
 Reference value :  1.64281e-04
 Reference value :  1.64500e-04
 Reference value :  1.64500e-04
 Reference value :  1.64500e-04
 Reference value :  1.64501e-04
 Reference value :  1.64501e-04
 Reference value :  1.64502e-04
 Reference value :  1.64503e-04
 Reference value :  1.64505e-04
 Reference value :  1.64506e-04
 Reference value :  1.64509e-04
 Reference value :  1.64512e-04
 Reference value :  1.64515e-04
 Reference value :  1.64516e-04
 Reference value :  1.64519e-04
 Reference value :  1.64524e-04
 Reference value :  1.64576e-04
 Reference value :  1.64686e-04
 Reference value :  1.64750e-04
 Reference value :  1.64750e-04
 Reference value :  1.64750e-04
 Reference value :  1.64751e-04
 Reference value :  1.64752e-04
 Reference value :  1.64754e-04
 Reference value :  1.64755e-04
 Reference value :  1.64758e-04
 Reference value :  1.64772e-04
 Reference value :  1.65000e-04
 Reference value :  1.65000e-04
 Reference value :  1.65000e-04
 Reference value :  1.65001e-04
 Reference value :  1.65002e-04
 Reference value :  1.65003e-04
 Reference value :  1.65004e-04
 Reference value :  1.65006e-04
 Reference value :  1.65006e-04
 Reference value :  1.65008e-04
 Reference value :  1.65010e-04
 Reference value :  1.65014e-04
 Reference value :  1.65069e-04
 Reference value :  1.65250e-04
 Reference value :  1.65250e-04
 Reference value :  1.65250e-04
 Reference value :  1.65250e-04
 Reference value :  1.65251e-04
 Reference value :  1.65252e-04
 Reference value :  1.65253e-04
 Reference value :  1.65254e-04
 Reference value :  1.65255e-04
 Reference value :  1.65257e-04
 Reference value :  1.65270e-04
 Reference value :  1.65436e-04
 Reference value :  1.65500e-04
 Reference value :  1.65500e-04
 Reference value :  1.65501e-04
 Reference value :  1.65502e-04
 Reference value :  1.65503e-04
 Reference value :  1.65505e-04
 Reference value :  1.65506e-04
 Reference value :  1.65509e-04
 Reference value :  1.65510e-04
 Reference value :  1.65515e-04
 Reference value :  1.65516e-04
 Reference value :  1.65520e-04
 Reference value :  1.65537e-04
 Reference value :  1.65556e-04
 Reference value :  1.65581e-04
 Reference value :  1.65593e-04
 Reference value :  1.65607e-04
 Reference value :  1.65658e-04
 Reference value :  1.65750e-04
 Reference value :  1.65750e-04
 Reference value :  1.65750e-04
 Reference value :  1.65751e-04
 Reference value :  1.65752e-04
 Reference value :  1.65753e-04
 Reference value :  1.65754e-04
 Reference value :  1.65756e-04
 Reference value :  1.65760e-04
 Reference value :  1.65772e-04
 Reference value :  1.65864e-04
 Reference value :  1.66000e-04
 Reference value :  1.66000e-04
 Reference value :  1.66000e-04
 Reference value :  1.66000e-04
 Reference value :  1.66001e-04
 Reference value :  1.66001e-04
 Reference value :  1.66002e-04
 Reference value :  1.66003e-04
 Reference value :  1.66005e-04
 Reference value :  1.66006e-04
 Reference value :  1.66008e-04
 Reference value :  1.66011e-04
 Reference value :  1.66069e-04
 Reference value :  1.66250e-04
 Reference value :  1.66250e-04
 Reference value :  1.66250e-04
 Reference value :  1.66252e-04
 Reference value :  1.66253e-04
 Reference value :  1.66254e-04
 Reference value :  1.66255e-04
 Reference value :  1.66256e-04
 Reference value :  1.66264e-04
 Reference value :  1.66436e-04
 Reference value :  1.66500e-04
 Reference value :  1.66500e-04
 Reference value :  1.66501e-04
 Reference value :  1.66502e-04
 Reference value :  1.66503e-04
 Reference value :  1.66504e-04
 Reference value :  1.66505e-04
 Reference value :  1.66506e-04
 Reference value :  1.66509e-04
 Reference value :  1.66510e-04
 Reference value :  1.66513e-04
 Reference value :  1.66515e-04
 Reference value :  1.66516e-04
 Reference value :  1.66516e-04
 Reference value :  1.66519e-04
 Reference value :  1.66524e-04
 Reference value :  1.66540e-04
 Reference value :  1.66550e-04
 Reference value :  1.66560e-04
 Reference value :  1.66580e-04
 Reference value :  1.66615e-04
 Reference value :  1.66625e-04
 Reference value :  1.66637e-04
 Reference value :  1.66659e-04
 Reference value :  1.66745e-04
 Reference value :  1.66750e-04
 Reference value :  1.66750e-04
 Reference value :  1.66751e-04
 Reference value :  1.66752e-04
 Reference value :  1.66754e-04
 Reference value :  1.66756e-04
 Reference value :  1.66763e-04
 Reference value :  1.66864e-04
 Reference value :  1.67000e-04
 Reference value :  1.67000e-04
 Reference value :  1.67001e-04
 Reference value :  1.67002e-04
 Reference value :  1.67003e-04
 Reference value :  1.67005e-04
 Reference value :  1.67006e-04
 Reference value :  1.67008e-04
 Reference value :  1.67010e-04
 Reference value :  1.67014e-04
 Reference value :  1.67041e-04
 Reference value :  1.67242e-04
 Reference value :  1.67250e-04
 Reference value :  1.67250e-04
 Reference value :  1.67250e-04
 Reference value :  1.67250e-04
 Reference value :  1.67251e-04
 Reference value :  1.67252e-04
 Reference value :  1.67253e-04
 Reference value :  1.67254e-04
 Reference value :  1.67255e-04
 Reference value :  1.67256e-04
 Reference value :  1.67261e-04
 Reference value :  1.67281e-04
 Reference value :  1.67436e-04
 Reference value :  1.67500e-04
 Reference value :  1.67500e-04
 Reference value :  1.67500e-04
 Reference value :  1.67501e-04
 Reference value :  1.67501e-04
 Reference value :  1.67502e-04
 Reference value :  1.67503e-04
 Reference value :  1.67505e-04
 Reference value :  1.67506e-04
 Reference value :  1.67509e-04
 Reference value :  1.67512e-04
 Reference value :  1.67515e-04
 Reference value :  1.67516e-04
 Reference value :  1.67519e-04
 Reference value :  1.67524e-04
 Reference value :  1.67540e-04
 Reference value :  1.67549e-04
 Reference value :  1.67559e-04
 Reference value :  1.67596e-04
 Reference value :  1.67711e-04
 Reference value :  1.67750e-04
 Reference value :  1.67750e-04
 Reference value :  1.67750e-04
 Reference value :  1.67752e-04
 Reference value :  1.67753e-04
 Reference value :  1.67754e-04
 Reference value :  1.67756e-04
 Reference value :  1.67760e-04
 Reference value :  1.67786e-04
 Reference value :  1.68000e-04
 Reference value :  1.68000e-04
 Reference value :  1.68000e-04
 Reference value :  1.68000e-04
 Reference value :  1.68001e-04
 Reference value :  1.68002e-04
 Reference value :  1.68004e-04
 Reference value :  1.68006e-04
 Reference value :  1.68007e-04
 Reference value :  1.68009e-04
 Reference value :  1.68012e-04
 Reference value :  1.68040e-04
 Reference value :  1.68250e-04
 Reference value :  1.68250e-04
 Reference value :  1.68250e-04
 Reference value :  1.68250e-04
 Reference value :  1.68252e-04
 Reference value :  1.68253e-04
 Reference value :  1.68254e-04
 Reference value :  1.68255e-04
 Reference value :  1.68256e-04
 Reference value :  1.68259e-04
 Reference value :  1.68265e-04
 Reference value :  1.68284e-04
 Reference value :  1.68405e-04
 Reference value :  1.68500e-04
 Reference value :  1.68500e-04
 Reference value :  1.68500e-04
 Reference value :  1.68500e-04
 Reference value :  1.68501e-04
 Reference value :  1.68502e-04
 Reference value :  1.68503e-04
 Reference value :  1.68504e-04
 Reference value :  1.68505e-04
 Reference value :  1.68506e-04
 Reference value :  1.68508e-04
 Reference value :  1.68510e-04
 Reference value :  1.68512e-04
 Reference value :  1.68514e-04
 Reference value :  1.68515e-04
 Reference value :  1.68518e-04
 Reference value :  1.68523e-04
 Reference value :  1.68550e-04
 Reference value :  1.68750e-04
 Reference value :  1.68750e-04
 Reference value :  1.68750e-04
 Reference value :  1.68750e-04
 Reference value :  1.68751e-04
 Reference value :  1.68753e-04
 Reference value :  1.68754e-04
 Reference value :  1.68755e-04
 Reference value :  1.68758e-04
 Reference value :  1.68766e-04
 Reference value :  1.68864e-04
 Reference value :  1.69000e-04
 Reference value :  1.69000e-04
 Reference value :  1.69001e-04
 Reference value :  1.69002e-04
 Reference value :  1.69003e-04
 Reference value :  1.69005e-04
 Reference value :  1.69006e-04
 Reference value :  1.69009e-04
 Reference value :  1.69012e-04
 Reference value :  1.69072e-04
 Reference value :  1.69250e-04
 Reference value :  1.69250e-04
 Reference value :  1.69252e-04
 Reference value :  1.69254e-04
 Reference value :  1.69255e-04
 Reference value :  1.69261e-04
 Reference value :  1.69434e-04
 Reference value :  1.69500e-04
 Reference value :  1.69500e-04
 Reference value :  1.69501e-04
 Reference value :  1.69503e-04
 Reference value :  1.69504e-04
 Reference value :  1.69505e-04
 Reference value :  1.69507e-04
 Reference value :  1.69510e-04
 Reference value :  1.69541e-04
 Reference value :  1.69750e-04
 Reference value :  1.69750e-04
 Reference value :  1.69750e-04
 Reference value :  1.69752e-04
 Reference value :  1.69753e-04
 Reference value :  1.69756e-04
 Reference value :  1.69758e-04
 Reference value :  1.69774e-04
 Reference value :  1.69998e-04
 Reference value :  1.70000e-04
 Reference value :  1.70000e-04
 Reference value :  1.70000e-04
 Reference value :  1.70000e-04
 Reference value :  1.70000e-04
 Reference value :  1.70000e-04
 Reference value :  1.70000e-04
 Reference value :  1.70002e-04
 Reference value :  1.70003e-04
 Reference value :  1.70004e-04
 Reference value :  1.70005e-04
 Reference value :  1.70006e-04
 Reference value :  1.70010e-04
 Reference value :  1.70023e-04
 Reference value :  1.70029e-04
 Reference value :  1.70033e-04
 Reference value :  1.70040e-04
 Reference value :  1.70049e-04
 Reference value :  1.70072e-04
 Reference value :  1.70147e-04
 Reference value :  1.70250e-04
 Reference value :  1.70250e-04
 Reference value :  1.70251e-04
 Reference value :  1.70253e-04
 Reference value :  1.70254e-04
 Reference value :  1.70255e-04
 Reference value :  1.70258e-04
 Reference value :  1.70272e-04
 Reference value :  1.70460e-04
 Reference value :  1.70500e-04
 Reference value :  1.70500e-04
 Reference value :  1.70500e-04
 Reference value :  1.70501e-04
 Reference value :  1.70502e-04
 Reference value :  1.70503e-04
 Reference value :  1.70503e-04
 Reference value :  1.70504e-04
 Reference value :  1.70507e-04
 Reference value :  1.70510e-04
 Reference value :  1.70513e-04
 Reference value :  1.70518e-04
 Reference value :  1.70549e-04
 Reference value :  1.70726e-04
 Reference value :  1.70750e-04
 Reference value :  1.70750e-04
 Reference value :  1.70750e-04
 Reference value :  1.70751e-04
 Reference value :  1.70752e-04
 Reference value :  1.70754e-04
 Reference value :  1.70755e-04
 Reference value :  1.70756e-04
 Reference value :  1.70761e-04
 Reference value :  1.70781e-04
 Reference value :  1.70934e-04
 Reference value :  1.71000e-04
 Reference value :  1.71000e-04
 Reference value :  1.71000e-04
 Reference value :  1.71001e-04
 Reference value :  1.71002e-04
 Reference value :  1.71003e-04
 Reference value :  1.71004e-04
 Reference value :  1.71005e-04
 Reference value :  1.71007e-04
 Reference value :  1.71010e-04
 Reference value :  1.71013e-04
 Reference value :  1.71015e-04
 Reference value :  1.71016e-04
 Reference value :  1.71019e-04
 Reference value :  1.71024e-04
 Reference value :  1.71056e-04
 Reference value :  1.71205e-04
 Reference value :  1.71250e-04
 Reference value :  1.71250e-04
 Reference value :  1.71250e-04
 Reference value :  1.71250e-04
 Reference value :  1.71251e-04
 Reference value :  1.71252e-04
 Reference value :  1.71252e-04
 Reference value :  1.71253e-04
 Reference value :  1.71254e-04
 Reference value :  1.71255e-04
 Reference value :  1.71256e-04
 Reference value :  1.71262e-04
 Reference value :  1.71275e-04
 Reference value :  1.71312e-04
 Reference value :  1.71430e-04
 Reference value :  1.71500e-04
 Reference value :  1.71500e-04
 Reference value :  1.71500e-04
 Reference value :  1.71501e-04
 Reference value :  1.71502e-04
 Reference value :  1.71503e-04
 Reference value :  1.71504e-04
 Reference value :  1.71506e-04
 Reference value :  1.71509e-04
 Reference value :  1.71515e-04
 Reference value :  1.71625e-04
 Reference value :  1.71750e-04
 Reference value :  1.71750e-04
 Reference value :  1.71750e-04
 Reference value :  1.71751e-04
 Reference value :  1.71752e-04
 Reference value :  1.71753e-04
 Reference value :  1.71754e-04
 Reference value :  1.71756e-04
 Reference value :  1.71760e-04
 Reference value :  1.71784e-04
 Reference value :  1.72000e-04
 Reference value :  1.72000e-04
 Reference value :  1.72000e-04
 Reference value :  1.72001e-04
 Reference value :  1.72002e-04
 Reference value :  1.72004e-04
 Reference value :  1.72005e-04
 Reference value :  1.72007e-04
 Reference value :  1.72010e-04
 Reference value :  1.72012e-04
 Reference value :  1.72014e-04
 Reference value :  1.72015e-04
 Reference value :  1.72018e-04
 Reference value :  1.72026e-04
 Reference value :  1.72030e-04
 Reference value :  1.72034e-04
 Reference value :  1.72039e-04
 Reference value :  1.72049e-04
 Reference value :  1.72066e-04
 Reference value :  1.72204e-04
 Reference value :  1.72250e-04
 Reference value :  1.72250e-04
 Reference value :  1.72251e-04
 Reference value :  1.72252e-04
 Reference value :  1.72254e-04
 Reference value :  1.72255e-04
 Reference value :  1.72260e-04
 Reference value :  1.72272e-04
 Reference value :  1.72500e-04
 Reference value :  1.72500e-04
 Reference value :  1.72500e-04
 Reference value :  1.72501e-04
 Reference value :  1.72502e-04
 Reference value :  1.72503e-04
 Reference value :  1.72505e-04
 Reference value :  1.72506e-04
 Reference value :  1.72508e-04
 Reference value :  1.72511e-04
 Reference value :  1.72542e-04
 Reference value :  1.72750e-04
 Reference value :  1.72750e-04
 Reference value :  1.72751e-04
 Reference value :  1.72752e-04
 Reference value :  1.72753e-04
 Reference value :  1.72755e-04
 Reference value :  1.72756e-04
 Reference value :  1.72764e-04
 Reference value :  1.72847e-04
 Reference value :  1.73000e-04
 Reference value :  1.73000e-04
 Reference value :  1.73001e-04
 Reference value :  1.73003e-04
 Reference value :  1.73004e-04
 Reference value :  1.73006e-04
 Reference value :  1.73012e-04
 Reference value :  1.73016e-04
 Reference value :  1.73020e-04
 Reference value :  1.73108e-04
 Reference value :  1.73250e-04
 Reference value :  1.73250e-04
 Reference value :  1.73252e-04
 Reference value :  1.73254e-04
 Reference value :  1.73258e-04
 Reference value :  1.73364e-04
 Reference value :  1.73500e-04
 Reference value :  1.73501e-04
 Reference value :  1.73502e-04
 Reference value :  1.73504e-04
 Reference value :  1.73507e-04
 Reference value :  1.73511e-04
 Reference value :  1.73569e-04
 Reference value :  1.73750e-04
 Reference value :  1.73750e-04
 Reference value :  1.73752e-04
 Reference value :  1.73754e-04
 Reference value :  1.73757e-04
 Reference value :  1.73803e-04
 Reference value :  1.74000e-04
 Reference value :  1.74000e-04
 Reference value :  1.74002e-04
 Reference value :  1.74004e-04
 Reference value :  1.74006e-04
 Reference value :  1.74010e-04
 Reference value :  1.74015e-04
 Reference value :  1.74019e-04
 Reference value :  1.74047e-04
 Reference value :  1.74074e-04
 Reference value :  1.74094e-04
 Reference value :  1.74124e-04
 Reference value :  1.74250e-04
 Reference value :  1.74250e-04
 Reference value :  1.74252e-04
 Reference value :  1.74254e-04
 Reference value :  1.74260e-04
 Reference value :  1.74364e-04
 Reference value :  1.74500e-04
 Reference value :  1.74501e-04
 Reference value :  1.74502e-04
 Reference value :  1.74504e-04
 Reference value :  1.74506e-04
 Reference value :  1.74510e-04
 Reference value :  1.74569e-04
 Reference value :  1.74750e-04
 Reference value :  1.74751e-04
 Reference value :  1.74753e-04
 Reference value :  1.74755e-04
 Reference value :  1.74764e-04
 Reference value :  1.75000e-04
 Reference value :  1.75000e-04
 Reference value :  1.75001e-04
 Reference value :  1.75003e-04
 Reference value :  1.75006e-04
 Reference value :  1.75010e-04
 Reference value :  1.75016e-04
 Reference value :  1.75020e-04
 Reference value :  1.75040e-04
 Reference value :  1.75059e-04
 Reference value :  1.75099e-04
 Reference value :  1.75138e-04
 Reference value :  1.75250e-04
 Reference value :  1.75250e-04
 Reference value :  1.75252e-04
 Reference value :  1.75254e-04
 Reference value :  1.75256e-04
 Reference value :  1.75312e-04
 Reference value :  1.75500e-04
 Reference value :  1.75501e-04
 Reference value :  1.75502e-04
 Reference value :  1.75504e-04
 Reference value :  1.75507e-04
 Reference value :  1.75511e-04
 Reference value :  1.75627e-04
 Reference value :  1.75750e-04
 Reference value :  1.75751e-04
 Reference value :  1.75753e-04
 Reference value :  1.75755e-04
 Reference value :  1.75761e-04
 Reference value :  1.76000e-04
 Reference value :  1.76000e-04
 Reference value :  1.76001e-04
 Reference value :  1.76003e-04
 Reference value :  1.76005e-04
 Reference value :  1.76010e-04
 Reference value :  1.76015e-04
 Reference value :  1.76019e-04
 Reference value :  1.76040e-04
 Reference value :  1.76078e-04
 Reference value :  1.76250e-04
 Reference value :  1.76250e-04
 Reference value :  1.76252e-04
 Reference value :  1.76254e-04
 Reference value :  1.76263e-04
 Reference value :  1.76366e-04
 Reference value :  1.76446e-04
 Reference value :  1.76500e-04
 Reference value :  1.76501e-04
 Reference value :  1.76502e-04
 Reference value :  1.76504e-04
 Reference value :  1.76506e-04
 Reference value :  1.76510e-04
 Reference value :  1.76542e-04
 Reference value :  1.76750e-04
 Reference value :  1.76750e-04
 Reference value :  1.76751e-04
 Reference value :  1.76753e-04
 Reference value :  1.76755e-04
 Reference value :  1.76761e-04
 Reference value :  1.77000e-04
 Reference value :  1.77000e-04
 Reference value :  1.77001e-04
 Reference value :  1.77003e-04
 Reference value :  1.77005e-04
 Reference value :  1.77010e-04
 Reference value :  1.77015e-04
 Reference value :  1.77019e-04
 Reference value :  1.77036e-04
 Reference value :  1.77056e-04
 Reference value :  1.77136e-04
 Reference value :  1.77250e-04
 Reference value :  1.77251e-04
 Reference value :  1.77253e-04
 Reference value :  1.77257e-04
 Reference value :  1.77286e-04
 Reference value :  1.77500e-04
 Reference value :  1.77500e-04
 Reference value :  1.77502e-04
 Reference value :  1.77504e-04
 Reference value :  1.77506e-04
 Reference value :  1.77510e-04
 Reference value :  1.77569e-04
 Reference value :  1.77750e-04
 Reference value :  1.77751e-04
 Reference value :  1.77753e-04
 Reference value :  1.77755e-04
 Reference value :  1.77759e-04
 Reference value :  1.77801e-04
 Reference value :  1.78000e-04
 Reference value :  1.78001e-04
 Reference value :  1.78002e-04
 Reference value :  1.78004e-04
 Reference value :  1.78006e-04
 Reference value :  1.78009e-04
 Reference value :  1.78016e-04
 Reference value :  1.78051e-04
 Reference value :  1.78115e-04
 Reference value :  1.78250e-04
 Reference value :  1.78250e-04
 Reference value :  1.78253e-04
 Reference value :  1.78256e-04
 Reference value :  1.78274e-04
No. of Data Rows : 25711
ngspice-44 done
