
Note: Compatibility modes selected: hs a


Circuit: ** sch_path: /home/audrey/cace/sar-adc-using-sky130-pdk/runs/run_2025-08-29_20-00-41/parameters/power/run_1/power_consumption.sch

option SCALE: Scale is set to 1e-06 for instance and model parameters
option SCALE: Scale is set to 1e-06 for instance and model parameters
option SCALE: Scale is set to 1e-06 for instance and model parameters
option SCALE: Scale is set to 1e-06 for instance and model parameters
Doing analysis at TEMP = 27.000000 and TNOM = 27.000000

Using KLU as Direct Linear Solver
Operating point simulation skipped by 'uic',
  now using transient initial conditions.
 Reference value :  5.00000e-12
 Reference value :  5.13046e-12
 Reference value :  5.39137e-12
 Reference value :  5.91320e-12
 Reference value :  6.95686e-12
 Reference value :  8.83586e-12
 Reference value :  1.18497e-11
 Reference value :  1.72950e-11
 Reference value :  2.76699e-11
 Reference value :  4.08814e-11
 Reference value :  6.45553e-11
 Reference value :  9.30450e-11
 Reference value :  1.44048e-10
 Reference value :  2.03645e-10
 Reference value :  3.22840e-10
 Reference value :  4.56869e-10
 Reference value :  5.00000e-10
 Reference value :  5.05158e-10
 Reference value :  5.15474e-10
 Reference value :  5.36106e-10
 Reference value :  5.77371e-10
 Reference value :  6.59900e-10
 Reference value :  8.24957e-10
 Reference value :  1.15507e-09
 Reference value :  1.81530e-09
 Reference value :  2.86675e-09
 Reference value :  4.39912e-09
 Reference value :  7.38431e-09
 Reference value :  1.04911e-08
 Reference value :  1.67046e-08
 Reference value :  2.63803e-08
 Reference value :  3.87824e-08
 Reference value :  5.61335e-08
 Reference value :  8.46010e-08
 Reference value :  1.41536e-07
 Reference value :  2.33313e-07
 Reference value :  3.30950e-07
 Reference value :  5.00000e-07
 Reference value :  5.19527e-07
 Reference value :  5.58582e-07
 Reference value :  6.36691e-07
 Reference value :  7.92909e-07
 Reference value :  1.00050e-06
 Reference value :  1.00055e-06
 Reference value :  1.00065e-06
 Reference value :  1.00085e-06
 Reference value :  1.00100e-06
 Reference value :  1.00103e-06
 Reference value :  1.00110e-06
 Reference value :  1.00124e-06
 Reference value :  1.00152e-06
 Reference value :  1.00199e-06
 Reference value :  1.00255e-06
 Reference value :  1.00340e-06
 Reference value :  1.00467e-06
 Reference value :  1.00690e-06
 Reference value :  1.00999e-06
 Reference value :  1.01616e-06
 Reference value :  1.02302e-06
 Reference value :  1.03169e-06
 Reference value :  1.04231e-06
 Reference value :  1.05202e-06
 Reference value :  1.07143e-06
 Reference value :  1.09084e-06
 Reference value :  1.11384e-06
 Reference value :  1.14385e-06
 Reference value :  1.17405e-06
 Reference value :  1.17699e-06
 Reference value :  1.18286e-06
 Reference value :  1.19069e-06
 Reference value :  1.19890e-06
 Reference value :  1.20688e-06
 Reference value :  1.21505e-06
 Reference value :  1.22100e-06
 Reference value :  1.22704e-06
 Reference value :  1.23344e-06
 Reference value :  1.23898e-06
 Reference value :  1.24489e-06
 Reference value :  1.25098e-06
 Reference value :  1.25829e-06
 Reference value :  1.26739e-06
 Reference value :  1.28195e-06
 Reference value :  1.29308e-06
 Reference value :  1.30133e-06
 Reference value :  1.30808e-06
 Reference value :  1.31361e-06
 Reference value :  1.31900e-06
 Reference value :  1.32406e-06
 Reference value :  1.32991e-06
 Reference value :  1.33675e-06
 Reference value :  1.34374e-06
 Reference value :  1.35521e-06
 Reference value :  1.36838e-06
 Reference value :  1.38265e-06
 Reference value :  1.39818e-06
 Reference value :  1.41577e-06
 Reference value :  1.43745e-06
 Reference value :  1.46237e-06
 Reference value :  1.51104e-06
 Reference value :  1.57402e-06
 Reference value :  1.68674e-06
 Reference value :  1.86840e-06
 Reference value :  2.00000e-06
 Reference value :  2.00005e-06
 Reference value :  2.00015e-06
 Reference value :  2.00035e-06
 Reference value :  2.00050e-06
 Reference value :  2.00051e-06
 Reference value :  2.00053e-06
 Reference value :  2.00056e-06
 Reference value :  2.00063e-06
 Reference value :  2.00076e-06
 Reference value :  2.00103e-06
 Reference value :  2.00157e-06
 Reference value :  2.00265e-06
 Reference value :  2.00397e-06
 Reference value :  2.00602e-06
 Reference value :  2.00848e-06
 Reference value :  2.01342e-06
 Reference value :  2.01871e-06
 Reference value :  2.02536e-06
 Reference value :  2.03358e-06
 Reference value :  2.04994e-06
 Reference value :  2.07443e-06
 Reference value :  2.12322e-06
 Reference value :  2.20451e-06
 Reference value :  2.28304e-06
 Reference value :  2.35754e-06
 Reference value :  2.43917e-06
 Reference value :  2.45305e-06
 Reference value :  2.48080e-06
 Reference value :  2.53630e-06
 Reference value :  2.61186e-06
 Reference value :  2.67370e-06
 Reference value :  2.73783e-06
 Reference value :  2.79809e-06
 Reference value :  2.85085e-06
 Reference value :  2.91014e-06
 Reference value :  2.98175e-06
 Reference value :  3.00050e-06
 Reference value :  3.00055e-06
 Reference value :  3.00065e-06
 Reference value :  3.00085e-06
 Reference value :  3.00100e-06
 Reference value :  3.00104e-06
 Reference value :  3.00111e-06
 Reference value :  3.00126e-06
 Reference value :  3.00153e-06
 Reference value :  3.00182e-06
 Reference value :  3.00218e-06
 Reference value :  3.00274e-06
 Reference value :  3.00388e-06
 Reference value :  3.00615e-06
 Reference value :  3.01069e-06
 Reference value :  3.01976e-06
 Reference value :  3.03715e-06
 Reference value :  3.05767e-06
 Reference value :  3.08043e-06
 Reference value :  3.11358e-06
 Reference value :  3.14777e-06
 Reference value :  3.21167e-06
 Reference value :  3.32362e-06
 Reference value :  3.47741e-06
 Reference value :  3.68124e-06
 Reference value :  3.68690e-06
 Reference value :  3.69821e-06
 Reference value :  3.72084e-06
 Reference value :  3.76609e-06
 Reference value :  3.85659e-06
 Reference value :  4.00000e-06
 Reference value :  4.00005e-06
 Reference value :  4.00015e-06
 Reference value :  4.00035e-06
 Reference value :  4.00050e-06
 Reference value :  4.00051e-06
 Reference value :  4.00053e-06
 Reference value :  4.00057e-06
 Reference value :  4.00065e-06
 Reference value :  4.00082e-06
 Reference value :  4.00115e-06
 Reference value :  4.00181e-06
 Reference value :  4.00313e-06
 Reference value :  4.00434e-06
 Reference value :  4.00678e-06
 Reference value :  4.00940e-06
 Reference value :  4.01464e-06
 Reference value :  4.02088e-06
 Reference value :  4.02742e-06
 Reference value :  4.03738e-06
 Reference value :  4.05370e-06
 Reference value :  4.07927e-06
 Reference value :  4.12912e-06
 Reference value :  4.21490e-06
 Reference value :  4.33704e-06
 Reference value :  4.44746e-06
 Reference value :  4.54790e-06
 Reference value :  4.64439e-06
 Reference value :  4.75346e-06
 Reference value :  4.87158e-06
 Reference value :  5.00050e-06
 Reference value :  5.00055e-06
 Reference value :  5.00065e-06
 Reference value :  5.00085e-06
 Reference value :  5.00100e-06
 Reference value :  5.00104e-06
 Reference value :  5.00111e-06
 Reference value :  5.00125e-06
 Reference value :  5.00153e-06
 Reference value :  5.00182e-06
 Reference value :  5.00218e-06
 Reference value :  5.00274e-06
 Reference value :  5.00388e-06
 Reference value :  5.00614e-06
 Reference value :  5.01067e-06
 Reference value :  5.01973e-06
 Reference value :  5.03653e-06
 Reference value :  5.05231e-06
 Reference value :  5.07859e-06
 Reference value :  5.10617e-06
 Reference value :  5.16132e-06
 Reference value :  5.22268e-06
 Reference value :  5.33203e-06
 Reference value :  5.44382e-06
 Reference value :  5.52109e-06
 Reference value :  5.59392e-06
 Reference value :  5.69306e-06
 Reference value :  5.79915e-06
 Reference value :  5.92145e-06
 Reference value :  6.00000e-06
 Reference value :  6.00005e-06
 Reference value :  6.00015e-06
 Reference value :  6.00035e-06
 Reference value :  6.00050e-06
 Reference value :  6.00051e-06
 Reference value :  6.00054e-06
 Reference value :  6.00059e-06
 Reference value :  6.00069e-06
 Reference value :  6.00089e-06
 Reference value :  6.00130e-06
 Reference value :  6.00210e-06
 Reference value :  6.00372e-06
 Reference value :  6.00651e-06
 Reference value :  6.00918e-06
 Reference value :  6.01452e-06
 Reference value :  6.02041e-06
 Reference value :  6.03219e-06
 Reference value :  6.04743e-06
 Reference value :  6.06356e-06
 Reference value :  6.08716e-06
 Reference value :  6.13179e-06
 Reference value :  6.19443e-06
 Reference value :  6.31375e-06
 Reference value :  6.49528e-06
 Reference value :  6.78161e-06
 Reference value :  7.00050e-06
 Reference value :  7.00055e-06
 Reference value :  7.00065e-06
 Reference value :  7.00085e-06
 Reference value :  7.00100e-06
 Reference value :  7.00103e-06
 Reference value :  7.00110e-06
 Reference value :  7.00124e-06
 Reference value :  7.00151e-06
 Reference value :  7.00180e-06
 Reference value :  7.00222e-06
 Reference value :  7.00284e-06
 Reference value :  7.00406e-06
 Reference value :  7.00652e-06
 Reference value :  7.01143e-06
 Reference value :  7.02125e-06
 Reference value :  7.04089e-06
 Reference value :  7.06704e-06
 Reference value :  7.10427e-06
 Reference value :  7.15645e-06
 Reference value :  7.23694e-06
 Reference value :  7.32986e-06
 Reference value :  7.45168e-06
 Reference value :  7.60158e-06
 Reference value :  7.74659e-06
 Reference value :  7.84934e-06
 Reference value :  7.94575e-06
 Reference value :  8.00000e-06
 Reference value :  8.00005e-06
 Reference value :  8.00015e-06
 Reference value :  8.00035e-06
 Reference value :  8.00050e-06
 Reference value :  8.00051e-06
 Reference value :  8.00053e-06
 Reference value :  8.00056e-06
 Reference value :  8.00064e-06
 Reference value :  8.00079e-06
 Reference value :  8.00108e-06
 Reference value :  8.00167e-06
 Reference value :  8.00285e-06
 Reference value :  8.00521e-06
 Reference value :  8.00866e-06
 Reference value :  8.01232e-06
 Reference value :  8.01964e-06
 Reference value :  8.02749e-06
 Reference value :  8.04319e-06
 Reference value :  8.07038e-06
 Reference value :  8.10247e-06
 Reference value :  8.13998e-06
 Reference value :  8.19591e-06
 Reference value :  8.26916e-06
 Reference value :  8.39684e-06
 Reference value :  8.51810e-06
 Reference value :  8.76062e-06
 Reference value :  9.00050e-06
 Reference value :  9.00055e-06
 Reference value :  9.00065e-06
 Reference value :  9.00085e-06
 Reference value :  9.00100e-06
 Reference value :  9.00103e-06
 Reference value :  9.00110e-06
 Reference value :  9.00124e-06
 Reference value :  9.00151e-06
 Reference value :  9.00180e-06
 Reference value :  9.00221e-06
 Reference value :  9.00282e-06
 Reference value :  9.00403e-06
 Reference value :  9.00647e-06
 Reference value :  9.01133e-06
 Reference value :  9.02106e-06
 Reference value :  9.04053e-06
 Reference value :  9.06146e-06
 Reference value :  9.09399e-06
 Reference value :  9.13298e-06
 Reference value :  9.20112e-06
 Reference value :  9.27424e-06
 Reference value :  9.37084e-06
 Reference value :  9.52862e-06
 Reference value :  9.68493e-06
 Reference value :  9.93122e-06
 Reference value :  1.00000e-05
 Reference value :  1.00000e-05
 Reference value :  1.00001e-05
 Reference value :  1.00003e-05
 Reference value :  1.00005e-05
 Reference value :  1.00005e-05
 Reference value :  1.00005e-05
 Reference value :  1.00006e-05
 Reference value :  1.00007e-05
 Reference value :  1.00009e-05
 Reference value :  1.00012e-05
 Reference value :  1.00020e-05
 Reference value :  1.00035e-05
 Reference value :  1.00059e-05
 Reference value :  1.00084e-05
 Reference value :  1.00135e-05
 Reference value :  1.00185e-05
 Reference value :  1.00285e-05
 Reference value :  1.00484e-05
 Reference value :  1.00675e-05
 Reference value :  1.00910e-05
 Reference value :  1.01287e-05
 Reference value :  1.01771e-05
 Reference value :  1.02587e-05
 Reference value :  1.03720e-05
 Reference value :  1.05766e-05
 Reference value :  1.08083e-05
 Reference value :  1.10005e-05
 Reference value :  1.10005e-05
 Reference value :  1.10006e-05
 Reference value :  1.10008e-05
 Reference value :  1.10010e-05
 Reference value :  1.10010e-05
 Reference value :  1.10011e-05
 Reference value :  1.10012e-05
 Reference value :  1.10014e-05
 Reference value :  1.10018e-05
 Reference value :  1.10021e-05
 Reference value :  1.10027e-05
 Reference value :  1.10040e-05
 Reference value :  1.10064e-05
 Reference value :  1.10113e-05
 Reference value :  1.10211e-05
 Reference value :  1.10407e-05
 Reference value :  1.10678e-05
 Reference value :  1.11031e-05
 Reference value :  1.11512e-05
 Reference value :  1.12212e-05
 Reference value :  1.13122e-05
 Reference value :  1.14605e-05
 Reference value :  1.16429e-05
 Reference value :  1.19094e-05
 Reference value :  1.20000e-05
 Reference value :  1.20000e-05
 Reference value :  1.20001e-05
 Reference value :  1.20003e-05
 Reference value :  1.20005e-05
 Reference value :  1.20005e-05
 Reference value :  1.20005e-05
 Reference value :  1.20006e-05
 Reference value :  1.20007e-05
 Reference value :  1.20009e-05
 Reference value :  1.20012e-05
 Reference value :  1.20020e-05
 Reference value :  1.20035e-05
 Reference value :  1.20060e-05
 Reference value :  1.20086e-05
 Reference value :  1.20139e-05
 Reference value :  1.20192e-05
 Reference value :  1.20298e-05
 Reference value :  1.20509e-05
 Reference value :  1.20730e-05
 Reference value :  1.20979e-05
 Reference value :  1.21367e-05
 Reference value :  1.21880e-05
 Reference value :  1.22703e-05
 Reference value :  1.24033e-05
 Reference value :  1.26246e-05
 Reference value :  1.29115e-05
 Reference value :  1.30005e-05
 Reference value :  1.30006e-05
 Reference value :  1.30007e-05
 Reference value :  1.30009e-05
 Reference value :  1.30010e-05
 Reference value :  1.30010e-05
 Reference value :  1.30011e-05
 Reference value :  1.30012e-05
 Reference value :  1.30014e-05
 Reference value :  1.30018e-05
 Reference value :  1.30021e-05
 Reference value :  1.30027e-05
 Reference value :  1.30040e-05
 Reference value :  1.30064e-05
 Reference value :  1.30113e-05
 Reference value :  1.30211e-05
 Reference value :  1.30406e-05
 Reference value :  1.30678e-05
 Reference value :  1.31031e-05
 Reference value :  1.31514e-05
 Reference value :  1.32218e-05
 Reference value :  1.33137e-05
 Reference value :  1.34242e-05
 Reference value :  1.35213e-05
 Reference value :  1.36358e-05
 Reference value :  1.37517e-05
 Reference value :  1.38718e-05
 Reference value :  1.40000e-05
 Reference value :  1.40000e-05
 Reference value :  1.40002e-05
 Reference value :  1.40004e-05
 Reference value :  1.40005e-05
 Reference value :  1.40005e-05
 Reference value :  1.40005e-05
 Reference value :  1.40006e-05
 Reference value :  1.40007e-05
 Reference value :  1.40008e-05
 Reference value :  1.40012e-05
 Reference value :  1.40019e-05
 Reference value :  1.40033e-05
 Reference value :  1.40061e-05
 Reference value :  1.40088e-05
 Reference value :  1.40141e-05
 Reference value :  1.40198e-05
 Reference value :  1.40310e-05
 Reference value :  1.40534e-05
 Reference value :  1.40766e-05
 Reference value :  1.41028e-05
 Reference value :  1.41436e-05
 Reference value :  1.41968e-05
 Reference value :  1.42823e-05
 Reference value :  1.44198e-05
 Reference value :  1.46618e-05
 Reference value :  1.49755e-05
 Reference value :  1.50005e-05
 Reference value :  1.50005e-05
 Reference value :  1.50007e-05
 Reference value :  1.50009e-05
 Reference value :  1.50010e-05
 Reference value :  1.50010e-05
 Reference value :  1.50011e-05
 Reference value :  1.50012e-05
 Reference value :  1.50014e-05
 Reference value :  1.50018e-05
 Reference value :  1.50021e-05
 Reference value :  1.50027e-05
 Reference value :  1.50040e-05
 Reference value :  1.50064e-05
 Reference value :  1.50113e-05
 Reference value :  1.50210e-05
 Reference value :  1.50406e-05
 Reference value :  1.50668e-05
 Reference value :  1.51024e-05
 Reference value :  1.51511e-05
 Reference value :  1.52245e-05
 Reference value :  1.53159e-05
 Reference value :  1.54657e-05
 Reference value :  1.56409e-05
 Reference value :  1.56452e-05
 Reference value :  1.56538e-05
 Reference value :  1.56710e-05
 Reference value :  1.57054e-05
 Reference value :  1.57742e-05
 Reference value :  1.59118e-05
 Reference value :  1.60000e-05
 Reference value :  1.60000e-05
 Reference value :  1.60001e-05
 Reference value :  1.60004e-05
 Reference value :  1.60005e-05
 Reference value :  1.60005e-05
 Reference value :  1.60005e-05
 Reference value :  1.60006e-05
 Reference value :  1.60007e-05
 Reference value :  1.60008e-05
 Reference value :  1.60011e-05
 Reference value :  1.60018e-05
 Reference value :  1.60031e-05
 Reference value :  1.60057e-05
 Reference value :  1.60110e-05
 Reference value :  1.60215e-05
 Reference value :  1.60425e-05
 Reference value :  1.60626e-05
 Reference value :  1.60803e-05
 Reference value :  1.60970e-05
 Reference value :  1.61126e-05
 Reference value :  1.61318e-05
 Reference value :  1.61701e-05
 Reference value :  1.62353e-05
 Reference value :  1.63650e-05
 Reference value :  1.64834e-05
 Reference value :  1.66283e-05
 Reference value :  1.69134e-05
 Reference value :  1.70005e-05
 Reference value :  1.70006e-05
 Reference value :  1.70007e-05
 Reference value :  1.70009e-05
 Reference value :  1.70010e-05
 Reference value :  1.70010e-05
 Reference value :  1.70011e-05
 Reference value :  1.70012e-05
 Reference value :  1.70015e-05
 Reference value :  1.70018e-05
 Reference value :  1.70022e-05
 Reference value :  1.70028e-05
 Reference value :  1.70041e-05
 Reference value :  1.70066e-05
 Reference value :  1.70117e-05
 Reference value :  1.70218e-05
 Reference value :  1.70422e-05
 Reference value :  1.70780e-05
 Reference value :  1.71207e-05
 Reference value :  1.71870e-05
 Reference value :  1.72790e-05
 Reference value :  1.74303e-05
 Reference value :  1.76664e-05
 Reference value :  1.79761e-05
 Reference value :  1.80000e-05
 Reference value :  1.80001e-05
 Reference value :  1.80002e-05
 Reference value :  1.80004e-05
 Reference value :  1.80005e-05
 Reference value :  1.80005e-05
 Reference value :  1.80005e-05
 Reference value :  1.80006e-05
 Reference value :  1.80007e-05
 Reference value :  1.80008e-05
 Reference value :  1.80012e-05
 Reference value :  1.80019e-05
 Reference value :  1.80033e-05
 Reference value :  1.80061e-05
 Reference value :  1.80116e-05
 Reference value :  1.80228e-05
 Reference value :  1.80450e-05
 Reference value :  1.80896e-05
 Reference value :  1.81786e-05
 Reference value :  1.83116e-05
 Reference value :  1.84790e-05
 Reference value :  1.87352e-05
 Reference value :  1.90005e-05
 Reference value :  1.90006e-05
 Reference value :  1.90007e-05
 Reference value :  1.90009e-05
 Reference value :  1.90010e-05
 Reference value :  1.90010e-05
 Reference value :  1.90011e-05
 Reference value :  1.90012e-05
 Reference value :  1.90015e-05
 Reference value :  1.90018e-05
 Reference value :  1.90022e-05
 Reference value :  1.90029e-05
 Reference value :  1.90042e-05
 Reference value :  1.90068e-05
 Reference value :  1.90120e-05
 Reference value :  1.90223e-05
 Reference value :  1.90430e-05
 Reference value :  1.90845e-05
 Reference value :  1.91674e-05
 Reference value :  1.93294e-05
 Reference value :  1.95573e-05
 Reference value :  1.95643e-05
 Reference value :  1.95781e-05
 Reference value :  1.96057e-05
 Reference value :  1.96611e-05
 Reference value :  1.97717e-05
 Reference value :  1.98970e-05
 Reference value :  2.00000e-05
 Reference value :  2.00001e-05
 Reference value :  2.00002e-05
 Reference value :  2.00004e-05
 Reference value :  2.00005e-05
 Reference value :  2.00005e-05
 Reference value :  2.00005e-05
 Reference value :  2.00006e-05
 Reference value :  2.00007e-05
 Reference value :  2.00008e-05
 Reference value :  2.00012e-05
 Reference value :  2.00019e-05
 Reference value :  2.00033e-05
 Reference value :  2.00060e-05
 Reference value :  2.00116e-05
 Reference value :  2.00227e-05
 Reference value :  2.00448e-05
 Reference value :  2.00816e-05
 Reference value :  2.01550e-05
 Reference value :  2.02943e-05
 Reference value :  2.04987e-05
 Reference value :  2.07198e-05
 Reference value :  2.10005e-05
 Reference value :  2.10005e-05
 Reference value :  2.10006e-05
 Reference value :  2.10008e-05
 Reference value :  2.10010e-05
 Reference value :  2.10010e-05
 Reference value :  2.10011e-05
 Reference value :  2.10012e-05
 Reference value :  2.10015e-05
 Reference value :  2.10018e-05
 Reference value :  2.10022e-05
 Reference value :  2.10029e-05
 Reference value :  2.10042e-05
 Reference value :  2.10068e-05
 Reference value :  2.10120e-05
 Reference value :  2.10223e-05
 Reference value :  2.10431e-05
 Reference value :  2.10845e-05
 Reference value :  2.11675e-05
 Reference value :  2.13333e-05
 Reference value :  2.15959e-05
 Reference value :  2.20000e-05
 Reference value :  2.20000e-05
 Reference value :  2.20001e-05
 Reference value :  2.20004e-05
 Reference value :  2.20005e-05
 Reference value :  2.20005e-05
 Reference value :  2.20005e-05
 Reference value :  2.20006e-05
 Reference value :  2.20007e-05
 Reference value :  2.20008e-05
 Reference value :  2.20012e-05
 Reference value :  2.20019e-05
 Reference value :  2.20034e-05
 Reference value :  2.20062e-05
 Reference value :  2.20120e-05
 Reference value :  2.20235e-05
 Reference value :  2.20465e-05
 Reference value :  2.20925e-05
 Reference value :  2.21846e-05
 Reference value :  2.23293e-05
 Reference value :  2.25710e-05
 Reference value :  2.28178e-05
 Reference value :  2.30005e-05
 Reference value :  2.30005e-05
 Reference value :  2.30006e-05
 Reference value :  2.30008e-05
 Reference value :  2.30010e-05
 Reference value :  2.30010e-05
 Reference value :  2.30011e-05
 Reference value :  2.30012e-05
 Reference value :  2.30015e-05
 Reference value :  2.30018e-05
 Reference value :  2.30022e-05
 Reference value :  2.30029e-05
 Reference value :  2.30042e-05
 Reference value :  2.30068e-05
 Reference value :  2.30120e-05
 Reference value :  2.30223e-05
 Reference value :  2.30431e-05
 Reference value :  2.30846e-05
 Reference value :  2.31676e-05
 Reference value :  2.33336e-05
 Reference value :  2.36133e-05
 Reference value :  2.40000e-05
 Reference value :  2.40001e-05
 Reference value :  2.40002e-05
 Reference value :  2.40004e-05
 Reference value :  2.40005e-05
 Reference value :  2.40005e-05
 Reference value :  2.40005e-05
 Reference value :  2.40006e-05
 Reference value :  2.40007e-05
 Reference value :  2.40009e-05
 Reference value :  2.40012e-05
 Reference value :  2.40020e-05
 Reference value :  2.40035e-05
 Reference value :  2.40064e-05
 Reference value :  2.40124e-05
 Reference value :  2.40243e-05
 Reference value :  2.40481e-05
 Reference value :  2.40958e-05
 Reference value :  2.41911e-05
 Reference value :  2.43415e-05
 Reference value :  2.45713e-05
 Reference value :  2.48341e-05
 Reference value :  2.50005e-05
 Reference value :  2.50005e-05
 Reference value :  2.50006e-05
 Reference value :  2.50008e-05
 Reference value :  2.50010e-05
 Reference value :  2.50010e-05
 Reference value :  2.50011e-05
 Reference value :  2.50012e-05
 Reference value :  2.50015e-05
 Reference value :  2.50018e-05
 Reference value :  2.50022e-05
 Reference value :  2.50029e-05
 Reference value :  2.50042e-05
 Reference value :  2.50068e-05
 Reference value :  2.50120e-05
 Reference value :  2.50224e-05
 Reference value :  2.50431e-05
 Reference value :  2.50846e-05
 Reference value :  2.51677e-05
 Reference value :  2.53338e-05
 Reference value :  2.56201e-05
 Reference value :  2.60000e-05
 Reference value :  2.60001e-05
 Reference value :  2.60002e-05
 Reference value :  2.60004e-05
 Reference value :  2.60005e-05
 Reference value :  2.60005e-05
 Reference value :  2.60005e-05
 Reference value :  2.60006e-05
 Reference value :  2.60007e-05
 Reference value :  2.60009e-05
 Reference value :  2.60012e-05
 Reference value :  2.60020e-05
 Reference value :  2.60035e-05
 Reference value :  2.60066e-05
 Reference value :  2.60126e-05
 Reference value :  2.60248e-05
 Reference value :  2.60490e-05
 Reference value :  2.60976e-05
 Reference value :  2.61947e-05
 Reference value :  2.63488e-05
 Reference value :  2.65717e-05
 Reference value :  2.68443e-05
 Reference value :  2.70005e-05
 Reference value :  2.70006e-05
 Reference value :  2.70007e-05
 Reference value :  2.70009e-05
 Reference value :  2.70010e-05
 Reference value :  2.70010e-05
 Reference value :  2.70011e-05
 Reference value :  2.70012e-05
 Reference value :  2.70015e-05
 Reference value :  2.70018e-05
 Reference value :  2.70022e-05
 Reference value :  2.70029e-05
 Reference value :  2.70042e-05
 Reference value :  2.70068e-05
 Reference value :  2.70120e-05
 Reference value :  2.70224e-05
 Reference value :  2.70431e-05
 Reference value :  2.70847e-05
 Reference value :  2.71678e-05
 Reference value :  2.73339e-05
 Reference value :  2.76256e-05
 Reference value :  2.79355e-05
 Reference value :  2.80000e-05
 Reference value :  2.80000e-05
 Reference value :  2.80001e-05
 Reference value :  2.80004e-05
 Reference value :  2.80005e-05
 Reference value :  2.80005e-05
 Reference value :  2.80005e-05
 Reference value :  2.80006e-05
 Reference value :  2.80007e-05
 Reference value :  2.80009e-05
 Reference value :  2.80013e-05
 Reference value :  2.80020e-05
 Reference value :  2.80036e-05
 Reference value :  2.80066e-05
 Reference value :  2.80128e-05
 Reference value :  2.80251e-05
 Reference value :  2.80498e-05
 Reference value :  2.80990e-05
 Reference value :  2.81975e-05
 Reference value :  2.83546e-05
 Reference value :  2.85785e-05
 Reference value :  2.88563e-05
 Reference value :  2.90005e-05
 Reference value :  2.90006e-05
 Reference value :  2.90007e-05
 Reference value :  2.90009e-05
 Reference value :  2.90010e-05
 Reference value :  2.90010e-05
 Reference value :  2.90011e-05
 Reference value :  2.90012e-05
 Reference value :  2.90015e-05
 Reference value :  2.90018e-05
 Reference value :  2.90022e-05
 Reference value :  2.90029e-05
 Reference value :  2.90042e-05
 Reference value :  2.90068e-05
 Reference value :  2.90120e-05
 Reference value :  2.90224e-05
 Reference value :  2.90432e-05
 Reference value :  2.90848e-05
 Reference value :  2.91679e-05
 Reference value :  2.93343e-05
 Reference value :  2.95362e-05
 Reference value :  2.97246e-05
 Reference value :  2.98980e-05
 Reference value :  3.00000e-05
 Reference value :  3.00001e-05
 Reference value :  3.00002e-05
 Reference value :  3.00004e-05
 Reference value :  3.00005e-05
 Reference value :  3.00005e-05
 Reference value :  3.00005e-05
 Reference value :  3.00006e-05
 Reference value :  3.00007e-05
 Reference value :  3.00009e-05
 Reference value :  3.00013e-05
 Reference value :  3.00020e-05
 Reference value :  3.00036e-05
 Reference value :  3.00067e-05
 Reference value :  3.00129e-05
 Reference value :  3.00254e-05
 Reference value :  3.00503e-05
 Reference value :  3.01001e-05
 Reference value :  3.01996e-05
 Reference value :  3.03590e-05
 Reference value :  3.05415e-05
 Reference value :  3.07329e-05
 Reference value :  3.10005e-05
 Reference value :  3.10005e-05
 Reference value :  3.10006e-05
 Reference value :  3.10008e-05
 Reference value :  3.10010e-05
 Reference value :  3.10010e-05
 Reference value :  3.10011e-05
 Reference value :  3.10012e-05
 Reference value :  3.10015e-05
 Reference value :  3.10018e-05
 Reference value :  3.10022e-05
 Reference value :  3.10029e-05
 Reference value :  3.10042e-05
 Reference value :  3.10068e-05
 Reference value :  3.10120e-05
 Reference value :  3.10224e-05
 Reference value :  3.10433e-05
 Reference value :  3.10850e-05
 Reference value :  3.11684e-05
 Reference value :  3.13352e-05
 Reference value :  3.16393e-05
 Reference value :  3.20000e-05
 Reference value :  3.20000e-05
 Reference value :  3.20001e-05
 Reference value :  3.20003e-05
 Reference value :  3.20005e-05
 Reference value :  3.20005e-05
 Reference value :  3.20005e-05
 Reference value :  3.20006e-05
 Reference value :  3.20007e-05
 Reference value :  3.20009e-05
 Reference value :  3.20013e-05
 Reference value :  3.20020e-05
 Reference value :  3.20036e-05
 Reference value :  3.20067e-05
 Reference value :  3.20130e-05
 Reference value :  3.20254e-05
 Reference value :  3.20504e-05
 Reference value :  3.21003e-05
 Reference value :  3.22001e-05
 Reference value :  3.23604e-05
 Reference value :  3.25754e-05
 Reference value :  3.28624e-05
 Reference value :  3.30005e-05
 Reference value :  3.30006e-05
 Reference value :  3.30007e-05
 Reference value :  3.30009e-05
 Reference value :  3.30010e-05
 Reference value :  3.30010e-05
 Reference value :  3.30011e-05
 Reference value :  3.30012e-05
 Reference value :  3.30015e-05
 Reference value :  3.30018e-05
 Reference value :  3.30022e-05
 Reference value :  3.30029e-05
 Reference value :  3.30042e-05
 Reference value :  3.30068e-05
 Reference value :  3.30120e-05
 Reference value :  3.30224e-05
 Reference value :  3.30432e-05
 Reference value :  3.30848e-05
 Reference value :  3.31679e-05
 Reference value :  3.33343e-05
 Reference value :  3.36357e-05
 Reference value :  3.40000e-05
No. of Data Rows : 903
ngspice-44 done
