
Note: Compatibility modes selected: hs a


Circuit: ** sch_path: /home/samantha/cace/sar-adc-using-sky130-pdk/runs/run_2025-09-05_18-15-43/parameters/inl/run_0/sar_output.sch

option SCALE: Scale is set to 1e-06 for instance and model parameters
option SCALE: Scale is set to 1e-06 for instance and model parameters
option SCALE: Scale is set to 1e-06 for instance and model parameters
option SCALE: Scale is set to 1e-06 for instance and model parameters
Doing analysis at TEMP = 27.000000 and TNOM = 27.000000

Using KLU as Direct Linear Solver
Operating point simulation skipped by 'uic',
  now using transient initial conditions.
 Reference value :  1.00000e-12
 Reference value :  1.02386e-12
 Reference value :  1.07159e-12
 Reference value :  1.14192e-12
 Reference value :  1.21992e-12
 Reference value :  1.35801e-12
 Reference value :  1.57252e-12
 Reference value :  1.90218e-12
 Reference value :  2.53067e-12
 Reference value :  3.45820e-12
 Reference value :  4.88206e-12
 Reference value :  6.40376e-12
 Reference value :  8.74767e-12
 Reference value :  1.27905e-11
 Reference value :  1.82896e-11
 Reference value :  2.51902e-11
 Reference value :  3.42473e-11
 Reference value :  4.43200e-11
 Reference value :  6.01829e-11
 Reference value :  7.78457e-11
 Reference value :  1.00000e-10
 Reference value :  1.00427e-10
 Reference value :  1.01281e-10
 Reference value :  1.02989e-10
 Reference value :  1.06366e-10
 Reference value :  1.13121e-10
 Reference value :  1.26631e-10
 Reference value :  1.53651e-10
 Reference value :  1.91052e-10
 Reference value :  2.39121e-10
 Reference value :  3.07578e-10
 Reference value :  4.32575e-10
 Reference value :  6.63747e-10
 Reference value :  9.52818e-10
 Reference value :  1.38238e-09
 Reference value :  1.88389e-09
 Reference value :  2.64570e-09
 Reference value :  3.51597e-09
 Reference value :  4.51555e-09
 Reference value :  5.29421e-09
 Reference value :  6.16771e-09
 Reference value :  7.01733e-09
 Reference value :  7.91206e-09
 Reference value :  8.96259e-09
 Reference value :  1.00611e-08
 Reference value :  1.12222e-08
 Reference value :  1.25882e-08
 Reference value :  1.39811e-08
 Reference value :  1.52504e-08
 Reference value :  1.66546e-08
 Reference value :  1.79100e-08
 Reference value :  1.92641e-08
 Reference value :  2.08330e-08
 Reference value :  2.25294e-08
 Reference value :  2.39923e-08
 Reference value :  2.55592e-08
 Reference value :  2.73637e-08
 Reference value :  3.03484e-08
 Reference value :  3.33287e-08
 Reference value :  3.82777e-08
 Reference value :  4.50100e-08
 Reference value :  5.84748e-08
 Reference value :  8.32888e-08
 Reference value :  1.15038e-07
 Reference value :  1.66951e-07
 Reference value :  2.50100e-07
 Reference value :  2.50110e-07
 Reference value :  2.50130e-07
 Reference value :  2.50170e-07
 Reference value :  2.50200e-07
 Reference value :  2.50201e-07
 Reference value :  2.50202e-07
 Reference value :  2.50204e-07
 Reference value :  2.50208e-07
 Reference value :  2.50216e-07
 Reference value :  2.50232e-07
 Reference value :  2.50265e-07
 Reference value :  2.50331e-07
 Reference value :  2.50414e-07
 Reference value :  2.50579e-07
 Reference value :  2.50745e-07
 Reference value :  2.51077e-07
 Reference value :  2.51463e-07
 Reference value :  2.52139e-07
 Reference value :  2.52794e-07
 Reference value :  2.53524e-07
 Reference value :  2.54493e-07
 Reference value :  2.55496e-07
 Reference value :  2.56525e-07
 Reference value :  2.57716e-07
 Reference value :  2.58793e-07
 Reference value :  2.60124e-07
 Reference value :  2.61354e-07
 Reference value :  2.63011e-07
 Reference value :  2.65905e-07
 Reference value :  2.69857e-07
 Reference value :  2.77696e-07
 Reference value :  2.91348e-07
 Reference value :  3.15168e-07
 Reference value :  3.59955e-07
 Reference value :  4.38039e-07
 Reference value :  5.00000e-07
 Reference value :  5.00010e-07
 Reference value :  5.00030e-07
 Reference value :  5.00070e-07
 Reference value :  5.00100e-07
 Reference value :  5.00101e-07
 Reference value :  5.00102e-07
 Reference value :  5.00104e-07
 Reference value :  5.00108e-07
 Reference value :  5.00116e-07
 Reference value :  5.00133e-07
 Reference value :  5.00166e-07
 Reference value :  5.00232e-07
 Reference value :  5.00364e-07
 Reference value :  5.00562e-07
 Reference value :  5.00958e-07
 Reference value :  5.01468e-07
 Reference value :  5.02005e-07
 Reference value :  5.02765e-07
 Reference value :  5.03572e-07
 Reference value :  5.04320e-07
 Reference value :  5.05131e-07
 Reference value :  5.06130e-07
 Reference value :  5.07176e-07
 Reference value :  5.08402e-07
 Reference value :  5.09764e-07
 Reference value :  5.11619e-07
 Reference value :  5.13521e-07
 Reference value :  5.15478e-07
 Reference value :  5.17410e-07
 Reference value :  5.19723e-07
 Reference value :  5.23973e-07
 Reference value :  5.26999e-07
 Reference value :  5.30558e-07
 Reference value :  5.34324e-07
 Reference value :  5.38294e-07
 Reference value :  5.44484e-07
 Reference value :  5.50302e-07
 Reference value :  5.60209e-07
 Reference value :  5.73371e-07
 Reference value :  5.99696e-07
 Reference value :  6.51248e-07
 Reference value :  7.38768e-07
 Reference value :  7.50100e-07
 Reference value :  7.50110e-07
 Reference value :  7.50130e-07
 Reference value :  7.50170e-07
 Reference value :  7.50200e-07
 Reference value :  7.50201e-07
 Reference value :  7.50202e-07
 Reference value :  7.50204e-07
 Reference value :  7.50208e-07
 Reference value :  7.50216e-07
 Reference value :  7.50233e-07
 Reference value :  7.50266e-07
 Reference value :  7.50333e-07
 Reference value :  7.50467e-07
 Reference value :  7.50644e-07
 Reference value :  7.50914e-07
 Reference value :  7.51453e-07
 Reference value :  7.52099e-07
 Reference value :  7.52799e-07
 Reference value :  7.53529e-07
 Reference value :  7.54426e-07
 Reference value :  7.55524e-07
 Reference value :  7.56676e-07
 Reference value :  7.57707e-07
 Reference value :  7.58806e-07
 Reference value :  7.59801e-07
 Reference value :  7.60851e-07
 Reference value :  7.62085e-07
 Reference value :  7.63384e-07
 Reference value :  7.64954e-07
 Reference value :  7.66881e-07
 Reference value :  7.69513e-07
 Reference value :  7.72595e-07
 Reference value :  7.77490e-07
 Reference value :  7.87279e-07
 Reference value :  8.04447e-07
 Reference value :  8.36333e-07
 Reference value :  8.96009e-07
 Reference value :  1.00000e-06
 Reference value :  1.00001e-06
 Reference value :  1.00003e-06
 Reference value :  1.00007e-06
 Reference value :  1.00010e-06
 Reference value :  1.00010e-06
 Reference value :  1.00010e-06
 Reference value :  1.00010e-06
 Reference value :  1.00011e-06
 Reference value :  1.00012e-06
 Reference value :  1.00013e-06
 Reference value :  1.00017e-06
 Reference value :  1.00023e-06
 Reference value :  1.00036e-06
 Reference value :  1.00056e-06
 Reference value :  1.00096e-06
 Reference value :  1.00147e-06
 Reference value :  1.00201e-06
 Reference value :  1.00276e-06
 Reference value :  1.00346e-06
 Reference value :  1.00420e-06
 Reference value :  1.00499e-06
 Reference value :  1.00587e-06
 Reference value :  1.00691e-06
 Reference value :  1.00768e-06
 Reference value :  1.00855e-06
 Reference value :  1.00939e-06
 Reference value :  1.01026e-06
 Reference value :  1.01143e-06
 Reference value :  1.01268e-06
 Reference value :  1.01518e-06
 Reference value :  1.01755e-06
 Reference value :  1.01942e-06
 Reference value :  1.02149e-06
 Reference value :  1.02435e-06
 Reference value :  1.02664e-06
 Reference value :  1.02866e-06
 Reference value :  1.03014e-06
 Reference value :  1.03157e-06
 Reference value :  1.03322e-06
 Reference value :  1.03488e-06
 Reference value :  1.03684e-06
 Reference value :  1.03987e-06
 Reference value :  1.04308e-06
 Reference value :  1.04951e-06
 Reference value :  1.05933e-06
 Reference value :  1.07644e-06
 Reference value :  1.10720e-06
 Reference value :  1.15829e-06
 Reference value :  1.23310e-06
 Reference value :  1.25010e-06
 Reference value :  1.25011e-06
 Reference value :  1.25013e-06
 Reference value :  1.25017e-06
 Reference value :  1.25020e-06
 Reference value :  1.25020e-06
 Reference value :  1.25020e-06
 Reference value :  1.25020e-06
 Reference value :  1.25021e-06
 Reference value :  1.25022e-06
 Reference value :  1.25023e-06
 Reference value :  1.25027e-06
 Reference value :  1.25033e-06
 Reference value :  1.25047e-06
 Reference value :  1.25064e-06
 Reference value :  1.25091e-06
 Reference value :  1.25145e-06
 Reference value :  1.25210e-06
 Reference value :  1.25288e-06
 Reference value :  1.25358e-06
 Reference value :  1.25455e-06
 Reference value :  1.25561e-06
 Reference value :  1.25652e-06
 Reference value :  1.25760e-06
 Reference value :  1.25872e-06
 Reference value :  1.25987e-06
 Reference value :  1.26137e-06
 Reference value :  1.26390e-06
 Reference value :  1.26735e-06
 Reference value :  1.27247e-06
 Reference value :  1.28272e-06
 Reference value :  1.29890e-06
 Reference value :  1.33100e-06
 Reference value :  1.39521e-06
 Reference value :  1.50000e-06
 Reference value :  1.50001e-06
 Reference value :  1.50003e-06
 Reference value :  1.50007e-06
 Reference value :  1.50010e-06
 Reference value :  1.50010e-06
 Reference value :  1.50010e-06
 Reference value :  1.50010e-06
 Reference value :  1.50011e-06
 Reference value :  1.50012e-06
 Reference value :  1.50013e-06
 Reference value :  1.50017e-06
 Reference value :  1.50023e-06
 Reference value :  1.50036e-06
 Reference value :  1.50056e-06
 Reference value :  1.50095e-06
 Reference value :  1.50146e-06
 Reference value :  1.50200e-06
 Reference value :  1.50275e-06
 Reference value :  1.50344e-06
 Reference value :  1.50417e-06
 Reference value :  1.50501e-06
 Reference value :  1.50593e-06
 Reference value :  1.50691e-06
 Reference value :  1.50791e-06
 Reference value :  1.50963e-06
 Reference value :  1.51120e-06
 Reference value :  1.51316e-06
 Reference value :  1.51475e-06
 Reference value :  1.51645e-06
 Reference value :  1.51872e-06
 Reference value :  1.52106e-06
 Reference value :  1.52496e-06
 Reference value :  1.53015e-06
 Reference value :  1.53825e-06
 Reference value :  1.55114e-06
 Reference value :  1.57406e-06
 Reference value :  1.61735e-06
 Reference value :  1.69457e-06
 Reference value :  1.75010e-06
 Reference value :  1.75011e-06
 Reference value :  1.75013e-06
 Reference value :  1.75017e-06
 Reference value :  1.75020e-06
 Reference value :  1.75020e-06
 Reference value :  1.75020e-06
 Reference value :  1.75020e-06
 Reference value :  1.75021e-06
 Reference value :  1.75022e-06
 Reference value :  1.75023e-06
 Reference value :  1.75027e-06
 Reference value :  1.75033e-06
 Reference value :  1.75047e-06
 Reference value :  1.75064e-06
 Reference value :  1.75091e-06
 Reference value :  1.75145e-06
 Reference value :  1.75210e-06
 Reference value :  1.75288e-06
 Reference value :  1.75358e-06
 Reference value :  1.75454e-06
 Reference value :  1.75561e-06
 Reference value :  1.75653e-06
 Reference value :  1.75762e-06
 Reference value :  1.75853e-06
 Reference value :  1.75951e-06
 Reference value :  1.76064e-06
 Reference value :  1.76189e-06
 Reference value :  1.76337e-06
 Reference value :  1.76497e-06
 Reference value :  1.76740e-06
 Reference value :  1.77001e-06
 Reference value :  1.77436e-06
 Reference value :  1.78306e-06
 Reference value :  1.79609e-06
 Reference value :  1.82159e-06
 Reference value :  1.86459e-06
 Reference value :  1.94068e-06
 Reference value :  2.00000e-06
 Reference value :  2.00001e-06
 Reference value :  2.00003e-06
 Reference value :  2.00007e-06
 Reference value :  2.00010e-06
 Reference value :  2.00010e-06
 Reference value :  2.00010e-06
 Reference value :  2.00010e-06
 Reference value :  2.00011e-06
 Reference value :  2.00012e-06
 Reference value :  2.00013e-06
 Reference value :  2.00017e-06
 Reference value :  2.00023e-06
 Reference value :  2.00036e-06
 Reference value :  2.00056e-06
 Reference value :  2.00095e-06
 Reference value :  2.00146e-06
 Reference value :  2.00200e-06
 Reference value :  2.00275e-06
 Reference value :  2.00345e-06
 Reference value :  2.00418e-06
 Reference value :  2.00498e-06
 Reference value :  2.00586e-06
 Reference value :  2.00661e-06
 Reference value :  2.00746e-06
 Reference value :  2.00819e-06
 Reference value :  2.00904e-06
 Reference value :  2.01011e-06
 Reference value :  2.01122e-06
 Reference value :  2.01324e-06
 Reference value :  2.01537e-06
 Reference value :  2.01761e-06
 Reference value :  2.01983e-06
 Reference value :  2.02193e-06
 Reference value :  2.02420e-06
 Reference value :  2.02601e-06
 Reference value :  2.02744e-06
 Reference value :  2.02897e-06
 Reference value :  2.03070e-06
 Reference value :  2.03257e-06
 Reference value :  2.03462e-06
 Reference value :  2.03763e-06
 Reference value :  2.04131e-06
 Reference value :  2.04867e-06
 Reference value :  2.05848e-06
 Reference value :  2.07617e-06
 Reference value :  2.09866e-06
 Reference value :  2.14364e-06
 Reference value :  2.21044e-06
 Reference value :  2.25010e-06
 Reference value :  2.25011e-06
 Reference value :  2.25013e-06
 Reference value :  2.25017e-06
 Reference value :  2.25020e-06
 Reference value :  2.25020e-06
 Reference value :  2.25020e-06
 Reference value :  2.25020e-06
 Reference value :  2.25021e-06
 Reference value :  2.25022e-06
 Reference value :  2.25023e-06
 Reference value :  2.25027e-06
 Reference value :  2.25033e-06
 Reference value :  2.25047e-06
 Reference value :  2.25064e-06
 Reference value :  2.25091e-06
 Reference value :  2.25145e-06
 Reference value :  2.25210e-06
 Reference value :  2.25288e-06
 Reference value :  2.25358e-06
 Reference value :  2.25454e-06
 Reference value :  2.25561e-06
 Reference value :  2.25657e-06
 Reference value :  2.25771e-06
 Reference value :  2.25878e-06
 Reference value :  2.26033e-06
 Reference value :  2.26244e-06
 Reference value :  2.26495e-06
 Reference value :  2.26889e-06
 Reference value :  2.27529e-06
 Reference value :  2.28633e-06
 Reference value :  2.30434e-06
 Reference value :  2.34035e-06
 Reference value :  2.39742e-06
 Reference value :  2.46065e-06
 Reference value :  2.50000e-06
 Reference value :  2.50001e-06
 Reference value :  2.50003e-06
 Reference value :  2.50007e-06
 Reference value :  2.50010e-06
 Reference value :  2.50010e-06
 Reference value :  2.50010e-06
 Reference value :  2.50010e-06
 Reference value :  2.50011e-06
 Reference value :  2.50012e-06
 Reference value :  2.50013e-06
 Reference value :  2.50017e-06
 Reference value :  2.50023e-06
 Reference value :  2.50036e-06
 Reference value :  2.50055e-06
 Reference value :  2.50091e-06
 Reference value :  2.50141e-06
 Reference value :  2.50194e-06
 Reference value :  2.50259e-06
 Reference value :  2.50328e-06
 Reference value :  2.50395e-06
 Reference value :  2.50471e-06
 Reference value :  2.50557e-06
 Reference value :  2.50642e-06
 Reference value :  2.50765e-06
 Reference value :  2.50889e-06
 Reference value :  2.51091e-06
 Reference value :  2.51240e-06
 Reference value :  2.51392e-06
 Reference value :  2.51550e-06
 Reference value :  2.51724e-06
 Reference value :  2.51902e-06
 Reference value :  2.52259e-06
 Reference value :  2.52725e-06
 Reference value :  2.53603e-06
 Reference value :  2.55139e-06
 Reference value :  2.57940e-06
 Reference value :  2.63543e-06
 Reference value :  2.74748e-06
 Reference value :  2.75010e-06
 Reference value :  2.75011e-06
 Reference value :  2.75013e-06
 Reference value :  2.75017e-06
 Reference value :  2.75020e-06
 Reference value :  2.75020e-06
 Reference value :  2.75020e-06
 Reference value :  2.75020e-06
 Reference value :  2.75021e-06
 Reference value :  2.75022e-06
 Reference value :  2.75023e-06
 Reference value :  2.75027e-06
 Reference value :  2.75033e-06
 Reference value :  2.75047e-06
 Reference value :  2.75064e-06
 Reference value :  2.75091e-06
 Reference value :  2.75145e-06
 Reference value :  2.75210e-06
 Reference value :  2.75287e-06
 Reference value :  2.75358e-06
 Reference value :  2.75456e-06
 Reference value :  2.75562e-06
 Reference value :  2.75658e-06
 Reference value :  2.75747e-06
 Reference value :  2.75843e-06
 Reference value :  2.75958e-06
 Reference value :  2.76082e-06
 Reference value :  2.76219e-06
 Reference value :  2.76377e-06
 Reference value :  2.76611e-06
 Reference value :  2.76872e-06
 Reference value :  2.77303e-06
 Reference value :  2.77999e-06
 Reference value :  2.79393e-06
 Reference value :  2.81837e-06
 Reference value :  2.86414e-06
 Reference value :  2.94971e-06
 Reference value :  3.00000e-06
 Reference value :  3.00001e-06
 Reference value :  3.00003e-06
 Reference value :  3.00007e-06
 Reference value :  3.00010e-06
 Reference value :  3.00010e-06
 Reference value :  3.00010e-06
 Reference value :  3.00010e-06
 Reference value :  3.00011e-06
 Reference value :  3.00012e-06
 Reference value :  3.00013e-06
 Reference value :  3.00017e-06
 Reference value :  3.00023e-06
 Reference value :  3.00036e-06
 Reference value :  3.00055e-06
 Reference value :  3.00091e-06
 Reference value :  3.00141e-06
 Reference value :  3.00194e-06
 Reference value :  3.00269e-06
 Reference value :  3.00338e-06
 Reference value :  3.00409e-06
 Reference value :  3.00486e-06
 Reference value :  3.00572e-06
 Reference value :  3.00652e-06
 Reference value :  3.00735e-06
 Reference value :  3.00811e-06
 Reference value :  3.00895e-06
 Reference value :  3.01008e-06
 Reference value :  3.01115e-06
 Reference value :  3.01303e-06
 Reference value :  3.01515e-06
 Reference value :  3.01680e-06
 Reference value :  3.01863e-06
 Reference value :  3.02048e-06
 Reference value :  3.02250e-06
 Reference value :  3.02398e-06
 Reference value :  3.02540e-06
 Reference value :  3.02672e-06
 Reference value :  3.02817e-06
 Reference value :  3.02985e-06
 Reference value :  3.03173e-06
 Reference value :  3.03447e-06
 Reference value :  3.03794e-06
 Reference value :  3.04488e-06
 Reference value :  3.05582e-06
 Reference value :  3.07252e-06
 Reference value :  3.09879e-06
 Reference value :  3.12353e-06
 Reference value :  3.15495e-06
 Reference value :  3.18112e-06
 Reference value :  3.20447e-06
 Reference value :  3.21801e-06
 Reference value :  3.23146e-06
 Reference value :  3.24267e-06
 Reference value :  3.25010e-06
 Reference value :  3.25011e-06
 Reference value :  3.25013e-06
 Reference value :  3.25017e-06
 Reference value :  3.25020e-06
 Reference value :  3.25020e-06
 Reference value :  3.25020e-06
 Reference value :  3.25020e-06
 Reference value :  3.25021e-06
 Reference value :  3.25022e-06
 Reference value :  3.25023e-06
 Reference value :  3.25027e-06
 Reference value :  3.25033e-06
 Reference value :  3.25047e-06
 Reference value :  3.25064e-06
 Reference value :  3.25091e-06
 Reference value :  3.25145e-06
 Reference value :  3.25210e-06
 Reference value :  3.25287e-06
 Reference value :  3.25358e-06
 Reference value :  3.25455e-06
 Reference value :  3.25561e-06
 Reference value :  3.25649e-06
 Reference value :  3.25746e-06
 Reference value :  3.25844e-06
 Reference value :  3.25979e-06
 Reference value :  3.26121e-06
 Reference value :  3.26385e-06
 Reference value :  3.26710e-06
 Reference value :  3.27226e-06
 Reference value :  3.28257e-06
 Reference value :  3.29850e-06
 Reference value :  3.33002e-06
 Reference value :  3.39304e-06
 Reference value :  3.45034e-06
 Reference value :  3.50000e-06
 Reference value :  3.50001e-06
 Reference value :  3.50003e-06
 Reference value :  3.50007e-06
 Reference value :  3.50010e-06
 Reference value :  3.50010e-06
 Reference value :  3.50010e-06
 Reference value :  3.50010e-06
 Reference value :  3.50011e-06
 Reference value :  3.50012e-06
 Reference value :  3.50013e-06
 Reference value :  3.50017e-06
 Reference value :  3.50023e-06
 Reference value :  3.50036e-06
 Reference value :  3.50055e-06
 Reference value :  3.50091e-06
 Reference value :  3.50141e-06
 Reference value :  3.50194e-06
 Reference value :  3.50269e-06
 Reference value :  3.50338e-06
 Reference value :  3.50410e-06
 Reference value :  3.50489e-06
 Reference value :  3.50579e-06
 Reference value :  3.50677e-06
 Reference value :  3.50800e-06
 Reference value :  3.50965e-06
 Reference value :  3.51114e-06
 Reference value :  3.51287e-06
 Reference value :  3.51452e-06
 Reference value :  3.51639e-06
 Reference value :  3.51817e-06
 Reference value :  3.52052e-06
 Reference value :  3.52389e-06
 Reference value :  3.52905e-06
 Reference value :  3.53802e-06
 Reference value :  3.55371e-06
 Reference value :  3.58213e-06
 Reference value :  3.61000e-06
 Reference value :  3.63682e-06
 Reference value :  3.66958e-06
 Reference value :  3.71671e-06
 Reference value :  3.75010e-06
 Reference value :  3.75011e-06
 Reference value :  3.75013e-06
 Reference value :  3.75017e-06
 Reference value :  3.75020e-06
 Reference value :  3.75020e-06
 Reference value :  3.75020e-06
 Reference value :  3.75020e-06
 Reference value :  3.75021e-06
 Reference value :  3.75022e-06
 Reference value :  3.75023e-06
 Reference value :  3.75027e-06
 Reference value :  3.75033e-06
 Reference value :  3.75047e-06
 Reference value :  3.75064e-06
 Reference value :  3.75091e-06
 Reference value :  3.75145e-06
 Reference value :  3.75211e-06
 Reference value :  3.75288e-06
 Reference value :  3.75358e-06
 Reference value :  3.75455e-06
 Reference value :  3.75561e-06
 Reference value :  3.75649e-06
 Reference value :  3.75746e-06
 Reference value :  3.75839e-06
 Reference value :  3.75940e-06
 Reference value :  3.76056e-06
 Reference value :  3.76188e-06
 Reference value :  3.76337e-06
 Reference value :  3.76560e-06
 Reference value :  3.76813e-06
 Reference value :  3.77144e-06
 Reference value :  3.77634e-06
 Reference value :  3.78616e-06
 Reference value :  3.80578e-06
 Reference value :  3.84502e-06
 Reference value :  3.92351e-06
 Reference value :  4.00000e-06
 Reference value :  4.00001e-06
 Reference value :  4.00003e-06
 Reference value :  4.00007e-06
 Reference value :  4.00010e-06
 Reference value :  4.00010e-06
 Reference value :  4.00010e-06
 Reference value :  4.00010e-06
 Reference value :  4.00011e-06
 Reference value :  4.00012e-06
 Reference value :  4.00013e-06
 Reference value :  4.00017e-06
 Reference value :  4.00023e-06
 Reference value :  4.00036e-06
 Reference value :  4.00055e-06
 Reference value :  4.00091e-06
 Reference value :  4.00141e-06
 Reference value :  4.00194e-06
 Reference value :  4.00269e-06
 Reference value :  4.00337e-06
 Reference value :  4.00409e-06
 Reference value :  4.00487e-06
 Reference value :  4.00575e-06
 Reference value :  4.00648e-06
 Reference value :  4.00727e-06
 Reference value :  4.00802e-06
 Reference value :  4.00888e-06
 Reference value :  4.00970e-06
 Reference value :  4.01095e-06
 Reference value :  4.01209e-06
 Reference value :  4.01417e-06
 Reference value :  4.01639e-06
 Reference value :  4.01810e-06
 Reference value :  4.01998e-06
 Reference value :  4.02245e-06
 Reference value :  4.02450e-06
 Reference value :  4.02607e-06
 Reference value :  4.02753e-06
 Reference value :  4.02909e-06
 Reference value :  4.03069e-06
 Reference value :  4.03251e-06
 Reference value :  4.03571e-06
 Reference value :  4.03861e-06
 Reference value :  4.04302e-06
 Reference value :  4.04569e-06
 Reference value :  4.04849e-06
 Reference value :  4.05102e-06
 Reference value :  4.05405e-06
 Reference value :  4.05892e-06
 Reference value :  4.06439e-06
 Reference value :  4.07324e-06
 Reference value :  4.08586e-06
 Reference value :  4.10632e-06
 Reference value :  4.12340e-06
 Reference value :  4.14154e-06
 Reference value :  4.15996e-06
 Reference value :  4.18950e-06
 Reference value :  4.22867e-06
 Reference value :  4.25010e-06
 Reference value :  4.25011e-06
 Reference value :  4.25013e-06
 Reference value :  4.25017e-06
 Reference value :  4.25020e-06
 Reference value :  4.25020e-06
 Reference value :  4.25020e-06
 Reference value :  4.25020e-06
 Reference value :  4.25021e-06
 Reference value :  4.25022e-06
 Reference value :  4.25023e-06
 Reference value :  4.25027e-06
 Reference value :  4.25033e-06
 Reference value :  4.25042e-06
 Reference value :  4.25058e-06
 Reference value :  4.25077e-06
 Reference value :  4.25109e-06
 Reference value :  4.25172e-06
 Reference value :  4.25234e-06
 Reference value :  4.25304e-06
 Reference value :  4.25378e-06
 Reference value :  4.25472e-06
 Reference value :  4.25556e-06
 Reference value :  4.25650e-06
 Reference value :  4.25744e-06
 Reference value :  4.25841e-06
 Reference value :  4.25998e-06
 Reference value :  4.26157e-06
 Reference value :  4.26421e-06
 Reference value :  4.26765e-06
 Reference value :  4.27319e-06
 Reference value :  4.28427e-06
 Reference value :  4.30642e-06
 Reference value :  4.35073e-06
 Reference value :  4.43935e-06
 Reference value :  4.50000e-06
 Reference value :  4.50001e-06
 Reference value :  4.50003e-06
 Reference value :  4.50007e-06
 Reference value :  4.50010e-06
 Reference value :  4.50010e-06
 Reference value :  4.50010e-06
 Reference value :  4.50010e-06
 Reference value :  4.50011e-06
 Reference value :  4.50012e-06
 Reference value :  4.50013e-06
 Reference value :  4.50017e-06
 Reference value :  4.50023e-06
 Reference value :  4.50036e-06
 Reference value :  4.50062e-06
 Reference value :  4.50109e-06
 Reference value :  4.50174e-06
 Reference value :  4.50246e-06
 Reference value :  4.50308e-06
 Reference value :  4.50385e-06
 Reference value :  4.50470e-06
 Reference value :  4.50557e-06
 Reference value :  4.50646e-06
 Reference value :  4.50746e-06
 Reference value :  4.50877e-06
 Reference value :  4.51038e-06
 Reference value :  4.51159e-06
 Reference value :  4.51297e-06
 Reference value :  4.51453e-06
 Reference value :  4.51623e-06
 Reference value :  4.51793e-06
 Reference value :  4.52131e-06
 Reference value :  4.52808e-06
 Reference value :  4.54163e-06
 Reference value :  4.56871e-06
 Reference value :  4.62288e-06
 Reference value :  4.73122e-06
 Reference value :  4.75010e-06
 Reference value :  4.75011e-06
 Reference value :  4.75013e-06
 Reference value :  4.75017e-06
 Reference value :  4.75020e-06
 Reference value :  4.75020e-06
 Reference value :  4.75020e-06
 Reference value :  4.75020e-06
 Reference value :  4.75021e-06
 Reference value :  4.75022e-06
 Reference value :  4.75023e-06
 Reference value :  4.75027e-06
 Reference value :  4.75033e-06
 Reference value :  4.75042e-06
 Reference value :  4.75058e-06
 Reference value :  4.75077e-06
 Reference value :  4.75108e-06
 Reference value :  4.75171e-06
 Reference value :  4.75233e-06
 Reference value :  4.75303e-06
 Reference value :  4.75377e-06
 Reference value :  4.75471e-06
 Reference value :  4.75554e-06
 Reference value :  4.75647e-06
 Reference value :  4.75729e-06
 Reference value :  4.75818e-06
 Reference value :  4.75919e-06
 Reference value :  4.76035e-06
 Reference value :  4.76267e-06
 Reference value :  4.76561e-06
 Reference value :  4.76985e-06
 Reference value :  4.77699e-06
 Reference value :  4.79127e-06
 Reference value :  4.81984e-06
 Reference value :  4.87696e-06
 Reference value :  4.99120e-06
 Reference value :  5.00000e-06
 Reference value :  5.00001e-06
 Reference value :  5.00003e-06
 Reference value :  5.00007e-06
 Reference value :  5.00010e-06
 Reference value :  5.00010e-06
 Reference value :  5.00010e-06
 Reference value :  5.00010e-06
 Reference value :  5.00011e-06
 Reference value :  5.00012e-06
 Reference value :  5.00013e-06
 Reference value :  5.00017e-06
 Reference value :  5.00023e-06
 Reference value :  5.00036e-06
 Reference value :  5.00062e-06
 Reference value :  5.00109e-06
 Reference value :  5.00174e-06
 Reference value :  5.00246e-06
 Reference value :  5.00309e-06
 Reference value :  5.00386e-06
 Reference value :  5.00482e-06
 Reference value :  5.00568e-06
 Reference value :  5.00649e-06
 Reference value :  5.00735e-06
 Reference value :  5.00814e-06
 Reference value :  5.00900e-06
 Reference value :  5.01017e-06
 Reference value :  5.01140e-06
 Reference value :  5.01384e-06
 Reference value :  5.01640e-06
 Reference value :  5.01954e-06
 Reference value :  5.02293e-06
 Reference value :  5.02644e-06
 Reference value :  5.02896e-06
 Reference value :  5.03132e-06
 Reference value :  5.03399e-06
 Reference value :  5.03662e-06
 Reference value :  5.03928e-06
 Reference value :  5.04315e-06
 Reference value :  5.04764e-06
 Reference value :  5.05405e-06
 Reference value :  5.06311e-06
 Reference value :  5.07608e-06
 Reference value :  5.08806e-06
 Reference value :  5.11200e-06
 Reference value :  5.13925e-06
 Reference value :  5.17607e-06
 Reference value :  5.24971e-06
 Reference value :  5.25010e-06
 Reference value :  5.25011e-06
 Reference value :  5.25012e-06
 Reference value :  5.25014e-06
 Reference value :  5.25018e-06
 Reference value :  5.25020e-06
 Reference value :  5.25020e-06
 Reference value :  5.25020e-06
 Reference value :  5.25020e-06
 Reference value :  5.25020e-06
 Reference value :  5.25021e-06
 Reference value :  5.25022e-06
 Reference value :  5.25024e-06
 Reference value :  5.25028e-06
 Reference value :  5.25036e-06
 Reference value :  5.25047e-06
 Reference value :  5.25067e-06
 Reference value :  5.25088e-06
 Reference value :  5.25128e-06
 Reference value :  5.25197e-06
 Reference value :  5.25265e-06
 Reference value :  5.25337e-06
 Reference value :  5.25431e-06
 Reference value :  5.25546e-06
 Reference value :  5.25639e-06
 Reference value :  5.25745e-06
 Reference value :  5.25860e-06
 Reference value :  5.25977e-06
 Reference value :  5.26126e-06
 Reference value :  5.26397e-06
 Reference value :  5.26730e-06
 Reference value :  5.27273e-06
 Reference value :  5.28359e-06
 Reference value :  5.30169e-06
 Reference value :  5.33586e-06
 Reference value :  5.39764e-06
 Reference value :  5.50000e-06
 Reference value :  5.50001e-06
 Reference value :  5.50003e-06
 Reference value :  5.50007e-06
 Reference value :  5.50010e-06
 Reference value :  5.50010e-06
 Reference value :  5.50010e-06
 Reference value :  5.50010e-06
 Reference value :  5.50011e-06
 Reference value :  5.50012e-06
 Reference value :  5.50013e-06
 Reference value :  5.50017e-06
 Reference value :  5.50023e-06
 Reference value :  5.50036e-06
 Reference value :  5.50062e-06
 Reference value :  5.50109e-06
 Reference value :  5.50174e-06
 Reference value :  5.50246e-06
 Reference value :  5.50308e-06
 Reference value :  5.50385e-06
 Reference value :  5.50481e-06
 Reference value :  5.50576e-06
 Reference value :  5.50670e-06
 Reference value :  5.50785e-06
 Reference value :  5.50920e-06
 Reference value :  5.51083e-06
 Reference value :  5.51226e-06
 Reference value :  5.51360e-06
 Reference value :  5.51508e-06
 Reference value :  5.51674e-06
 Reference value :  5.51845e-06
 Reference value :  5.52187e-06
 Reference value :  5.52674e-06
 Reference value :  5.53638e-06
 Reference value :  5.55502e-06
 Reference value :  5.58848e-06
 Reference value :  5.65539e-06
 Reference value :  5.75010e-06
 Reference value :  5.75011e-06
 Reference value :  5.75013e-06
 Reference value :  5.75017e-06
 Reference value :  5.75020e-06
 Reference value :  5.75020e-06
 Reference value :  5.75020e-06
 Reference value :  5.75020e-06
 Reference value :  5.75021e-06
 Reference value :  5.75022e-06
 Reference value :  5.75023e-06
 Reference value :  5.75027e-06
 Reference value :  5.75033e-06
 Reference value :  5.75041e-06
 Reference value :  5.75058e-06
 Reference value :  5.75077e-06
 Reference value :  5.75108e-06
 Reference value :  5.75170e-06
 Reference value :  5.75233e-06
 Reference value :  5.75303e-06
 Reference value :  5.75376e-06
 Reference value :  5.75470e-06
 Reference value :  5.75573e-06
 Reference value :  5.75649e-06
 Reference value :  5.75737e-06
 Reference value :  5.75836e-06
 Reference value :  5.75929e-06
 Reference value :  5.76064e-06
 Reference value :  5.76205e-06
 Reference value :  5.76487e-06
 Reference value :  5.76864e-06
 Reference value :  5.77618e-06
 Reference value :  5.79125e-06
 Reference value :  5.81812e-06
 Reference value :  5.87187e-06
 Reference value :  5.97937e-06
 Reference value :  6.00000e-06
 Reference value :  6.00001e-06
 Reference value :  6.00003e-06
 Reference value :  6.00007e-06
 Reference value :  6.00010e-06
 Reference value :  6.00010e-06
 Reference value :  6.00010e-06
 Reference value :  6.00010e-06
 Reference value :  6.00011e-06
 Reference value :  6.00012e-06
 Reference value :  6.00013e-06
 Reference value :  6.00017e-06
 Reference value :  6.00023e-06
 Reference value :  6.00036e-06
 Reference value :  6.00062e-06
 Reference value :  6.00109e-06
 Reference value :  6.00174e-06
 Reference value :  6.00246e-06
 Reference value :  6.00309e-06
 Reference value :  6.00385e-06
 Reference value :  6.00482e-06
 Reference value :  6.00571e-06
 Reference value :  6.00666e-06
 Reference value :  6.00758e-06
 Reference value :  6.00857e-06
 Reference value :  6.00958e-06
 Reference value :  6.01082e-06
 Reference value :  6.01259e-06
 Reference value :  6.01490e-06
 Reference value :  6.01896e-06
 Reference value :  6.02378e-06
 Reference value :  6.02713e-06
 Reference value :  6.02997e-06
 Reference value :  6.03265e-06
 Reference value :  6.03541e-06
 Reference value :  6.03824e-06
 Reference value :  6.04151e-06
 Reference value :  6.04485e-06
 Reference value :  6.05070e-06
 Reference value :  6.05708e-06
 Reference value :  6.06709e-06
 Reference value :  6.08116e-06
 Reference value :  6.10093e-06
 Reference value :  6.12871e-06
 Reference value :  6.17503e-06
 Reference value :  6.23966e-06
 Reference value :  6.25010e-06
 Reference value :  6.25011e-06
 Reference value :  6.25013e-06
 Reference value :  6.25017e-06
 Reference value :  6.25020e-06
 Reference value :  6.25020e-06
 Reference value :  6.25020e-06
 Reference value :  6.25020e-06
 Reference value :  6.25021e-06
 Reference value :  6.25022e-06
 Reference value :  6.25023e-06
 Reference value :  6.25027e-06
 Reference value :  6.25033e-06
 Reference value :  6.25041e-06
 Reference value :  6.25058e-06
 Reference value :  6.25076e-06
 Reference value :  6.25106e-06
 Reference value :  6.25165e-06
 Reference value :  6.25228e-06
 Reference value :  6.25298e-06
 Reference value :  6.25371e-06
 Reference value :  6.25463e-06
 Reference value :  6.25565e-06
 Reference value :  6.25691e-06
 Reference value :  6.25794e-06
 Reference value :  6.25903e-06
 Reference value :  6.26021e-06
 Reference value :  6.26203e-06
 Reference value :  6.26379e-06
 Reference value :  6.26730e-06
 Reference value :  6.27238e-06
 Reference value :  6.28116e-06
 Reference value :  6.29792e-06
 Reference value :  6.33079e-06
 Reference value :  6.39652e-06
 Reference value :  6.50000e-06
 Reference value :  6.50001e-06
 Reference value :  6.50003e-06
 Reference value :  6.50007e-06
 Reference value :  6.50010e-06
 Reference value :  6.50010e-06
 Reference value :  6.50010e-06
 Reference value :  6.50010e-06
 Reference value :  6.50011e-06
 Reference value :  6.50012e-06
 Reference value :  6.50013e-06
 Reference value :  6.50017e-06
 Reference value :  6.50023e-06
 Reference value :  6.50036e-06
 Reference value :  6.50062e-06
 Reference value :  6.50109e-06
 Reference value :  6.50174e-06
 Reference value :  6.50246e-06
 Reference value :  6.50308e-06
 Reference value :  6.50385e-06
 Reference value :  6.50480e-06
 Reference value :  6.50576e-06
 Reference value :  6.50669e-06
 Reference value :  6.50778e-06
 Reference value :  6.50892e-06
 Reference value :  6.51063e-06
 Reference value :  6.51243e-06
 Reference value :  6.51382e-06
 Reference value :  6.51541e-06
 Reference value :  6.51708e-06
 Reference value :  6.51895e-06
 Reference value :  6.52244e-06
 Reference value :  6.52718e-06
 Reference value :  6.53659e-06
 Reference value :  6.55274e-06
 Reference value :  6.58505e-06
 Reference value :  6.64831e-06
 Reference value :  6.75010e-06
 Reference value :  6.75011e-06
 Reference value :  6.75013e-06
 Reference value :  6.75017e-06
 Reference value :  6.75020e-06
 Reference value :  6.75020e-06
 Reference value :  6.75020e-06
 Reference value :  6.75020e-06
 Reference value :  6.75021e-06
 Reference value :  6.75022e-06
 Reference value :  6.75023e-06
 Reference value :  6.75027e-06
 Reference value :  6.75033e-06
 Reference value :  6.75041e-06
 Reference value :  6.75058e-06
 Reference value :  6.75080e-06
 Reference value :  6.75107e-06
 Reference value :  6.75163e-06
 Reference value :  6.75225e-06
 Reference value :  6.75292e-06
 Reference value :  6.75364e-06
 Reference value :  6.75457e-06
 Reference value :  6.75558e-06
 Reference value :  6.75681e-06
 Reference value :  6.75778e-06
 Reference value :  6.75883e-06
 Reference value :  6.75987e-06
 Reference value :  6.76094e-06
 Reference value :  6.76216e-06
 Reference value :  6.76461e-06
 Reference value :  6.76913e-06
 Reference value :  6.77591e-06
 Reference value :  6.78947e-06
 Reference value :  6.81659e-06
 Reference value :  6.87082e-06
 Reference value :  6.97929e-06
 Reference value :  7.00000e-06
 Reference value :  7.00001e-06
 Reference value :  7.00003e-06
 Reference value :  7.00007e-06
 Reference value :  7.00010e-06
 Reference value :  7.00010e-06
 Reference value :  7.00010e-06
 Reference value :  7.00010e-06
 Reference value :  7.00011e-06
 Reference value :  7.00012e-06
 Reference value :  7.00013e-06
 Reference value :  7.00017e-06
 Reference value :  7.00023e-06
 Reference value :  7.00036e-06
 Reference value :  7.00062e-06
 Reference value :  7.00109e-06
 Reference value :  7.00174e-06
 Reference value :  7.00246e-06
 Reference value :  7.00308e-06
 Reference value :  7.00385e-06
 Reference value :  7.00481e-06
 Reference value :  7.00571e-06
 Reference value :  7.00665e-06
 Reference value :  7.00742e-06
 Reference value :  7.00831e-06
 Reference value :  7.00920e-06
 Reference value :  7.01039e-06
 Reference value :  7.01181e-06
 Reference value :  7.01452e-06
 Reference value :  7.01733e-06
 Reference value :  7.02076e-06
 Reference value :  7.02368e-06
 Reference value :  7.02673e-06
 Reference value :  7.02897e-06
 Reference value :  7.03107e-06
 Reference value :  7.03302e-06
 Reference value :  7.03511e-06
 Reference value :  7.03754e-06
 Reference value :  7.04082e-06
 Reference value :  7.04519e-06
 Reference value :  7.05215e-06
 Reference value :  7.06351e-06
 Reference value :  7.07760e-06
 Reference value :  7.10336e-06
 Reference value :  7.14267e-06
 Reference value :  7.21687e-06
 Reference value :  7.25010e-06
 Reference value :  7.25011e-06
 Reference value :  7.25013e-06
 Reference value :  7.25017e-06
 Reference value :  7.25020e-06
 Reference value :  7.25020e-06
 Reference value :  7.25020e-06
 Reference value :  7.25020e-06
 Reference value :  7.25021e-06
 Reference value :  7.25022e-06
 Reference value :  7.25023e-06
 Reference value :  7.25027e-06
 Reference value :  7.25033e-06
 Reference value :  7.25042e-06
 Reference value :  7.25059e-06
 Reference value :  7.25077e-06
 Reference value :  7.25107e-06
 Reference value :  7.25167e-06
 Reference value :  7.25229e-06
 Reference value :  7.25299e-06
 Reference value :  7.25372e-06
 Reference value :  7.25465e-06
 Reference value :  7.25566e-06
 Reference value :  7.25661e-06
 Reference value :  7.25783e-06
 Reference value :  7.25894e-06
 Reference value :  7.26015e-06
 Reference value :  7.26190e-06
 Reference value :  7.26418e-06
 Reference value :  7.26813e-06
 Reference value :  7.27393e-06
 Reference value :  7.28552e-06
 Reference value :  7.30658e-06
 Reference value :  7.34868e-06
 Reference value :  7.43289e-06
 Reference value :  7.50000e-06
 Reference value :  7.50001e-06
 Reference value :  7.50003e-06
 Reference value :  7.50007e-06
 Reference value :  7.50010e-06
 Reference value :  7.50010e-06
 Reference value :  7.50010e-06
 Reference value :  7.50010e-06
 Reference value :  7.50011e-06
 Reference value :  7.50012e-06
 Reference value :  7.50013e-06
 Reference value :  7.50017e-06
 Reference value :  7.50023e-06
 Reference value :  7.50036e-06
 Reference value :  7.50062e-06
 Reference value :  7.50109e-06
 Reference value :  7.50171e-06
 Reference value :  7.50245e-06
 Reference value :  7.50308e-06
 Reference value :  7.50385e-06
 Reference value :  7.50479e-06
 Reference value :  7.50576e-06
 Reference value :  7.50668e-06
 Reference value :  7.50785e-06
 Reference value :  7.50906e-06
 Reference value :  7.51091e-06
 Reference value :  7.51292e-06
 Reference value :  7.51463e-06
 Reference value :  7.51644e-06
 Reference value :  7.51877e-06
 Reference value :  7.52117e-06
 Reference value :  7.52527e-06
 Reference value :  7.53091e-06
 Reference value :  7.54030e-06
 Reference value :  7.55643e-06
 Reference value :  7.58218e-06
 Reference value :  7.63013e-06
 Reference value :  7.71643e-06
 Reference value :  7.75010e-06
 Reference value :  7.75011e-06
 Reference value :  7.75013e-06
 Reference value :  7.75017e-06
 Reference value :  7.75020e-06
 Reference value :  7.75020e-06
 Reference value :  7.75020e-06
 Reference value :  7.75020e-06
 Reference value :  7.75021e-06
 Reference value :  7.75022e-06
 Reference value :  7.75023e-06
 Reference value :  7.75027e-06
 Reference value :  7.75033e-06
 Reference value :  7.75042e-06
 Reference value :  7.75059e-06
 Reference value :  7.75082e-06
 Reference value :  7.75109e-06
 Reference value :  7.75165e-06
 Reference value :  7.75226e-06
 Reference value :  7.75292e-06
 Reference value :  7.75365e-06
 Reference value :  7.75457e-06
 Reference value :  7.75558e-06
 Reference value :  7.75656e-06
 Reference value :  7.75762e-06
 Reference value :  7.75857e-06
 Reference value :  7.75956e-06
 Reference value :  7.76063e-06
 Reference value :  7.76187e-06
 Reference value :  7.76436e-06
 Reference value :  7.76852e-06
 Reference value :  7.77494e-06
 Reference value :  7.78779e-06
 Reference value :  7.81348e-06
 Reference value :  7.86487e-06
 Reference value :  7.96766e-06
 Reference value :  8.00000e-06
 Reference value :  8.00001e-06
 Reference value :  8.00003e-06
 Reference value :  8.00007e-06
 Reference value :  8.00010e-06
 Reference value :  8.00010e-06
 Reference value :  8.00010e-06
 Reference value :  8.00010e-06
 Reference value :  8.00011e-06
 Reference value :  8.00012e-06
 Reference value :  8.00013e-06
 Reference value :  8.00017e-06
 Reference value :  8.00023e-06
 Reference value :  8.00036e-06
 Reference value :  8.00062e-06
 Reference value :  8.00109e-06
 Reference value :  8.00171e-06
 Reference value :  8.00245e-06
 Reference value :  8.00308e-06
 Reference value :  8.00385e-06
 Reference value :  8.00482e-06
 Reference value :  8.00575e-06
 Reference value :  8.00670e-06
 Reference value :  8.00757e-06
 Reference value :  8.00851e-06
 Reference value :  8.00955e-06
 Reference value :  8.01070e-06
 Reference value :  8.01244e-06
 Reference value :  8.01396e-06
 Reference value :  8.01557e-06
 Reference value :  8.01723e-06
 Reference value :  8.01904e-06
 Reference value :  8.02266e-06
 Reference value :  8.02810e-06
 Reference value :  8.03694e-06
 Reference value :  8.05463e-06
 Reference value :  8.09000e-06
 Reference value :  8.16075e-06
 Reference value :  8.25010e-06
 Reference value :  8.25011e-06
 Reference value :  8.25013e-06
 Reference value :  8.25017e-06
 Reference value :  8.25020e-06
 Reference value :  8.25020e-06
 Reference value :  8.25020e-06
 Reference value :  8.25020e-06
 Reference value :  8.25021e-06
 Reference value :  8.25022e-06
 Reference value :  8.25023e-06
 Reference value :  8.25027e-06
 Reference value :  8.25033e-06
 Reference value :  8.25047e-06
 Reference value :  8.25064e-06
 Reference value :  8.25085e-06
 Reference value :  8.25127e-06
 Reference value :  8.25193e-06
 Reference value :  8.25261e-06
 Reference value :  8.25331e-06
 Reference value :  8.25422e-06
 Reference value :  8.25545e-06
 Reference value :  8.25660e-06
 Reference value :  8.25789e-06
 Reference value :  8.25953e-06
 Reference value :  8.26158e-06
 Reference value :  8.26424e-06
 Reference value :  8.26765e-06
 Reference value :  8.27257e-06
 Reference value :  8.28243e-06
 Reference value :  8.29636e-06
 Reference value :  8.32421e-06
 Reference value :  8.37992e-06
 Reference value :  8.48513e-06
 Reference value :  8.50000e-06
No. of Data Rows : 1375
ngspice-44 done
