
Note: Compatibility modes selected: hs a


Circuit: ** sch_path: /home/audrey/cace/sar-adc-using-sky130-pdk/runs/run_2025-08-29_20-10-15/parameters/power/run_5/power_consumption.sch

option SCALE: Scale is set to 1e-06 for instance and model parameters
option SCALE: Scale is set to 1e-06 for instance and model parameters
option SCALE: Scale is set to 1e-06 for instance and model parameters
option SCALE: Scale is set to 1e-06 for instance and model parameters
Doing analysis at TEMP = 27.000000 and TNOM = 27.000000

Using KLU as Direct Linear Solver
Operating point simulation skipped by 'uic',
  now using transient initial conditions.
 Reference value :  5.00000e-12
 Reference value :  5.12725e-12
 Reference value :  5.38176e-12
 Reference value :  5.89076e-12
 Reference value :  6.90878e-12
 Reference value :  8.77576e-12
 Reference value :  1.17456e-11
 Reference value :  1.70912e-11
 Reference value :  2.73335e-11
 Reference value :  4.11651e-11
 Reference value :  6.40436e-11
 Reference value :  9.28663e-11
 Reference value :  1.43596e-10
 Reference value :  2.04906e-10
 Reference value :  3.22453e-10
 Reference value :  4.79641e-10
 Reference value :  5.00000e-10
 Reference value :  5.02882e-10
 Reference value :  5.08646e-10
 Reference value :  5.20174e-10
 Reference value :  5.43230e-10
 Reference value :  5.89342e-10
 Reference value :  6.81567e-10
 Reference value :  8.66016e-10
 Reference value :  1.23491e-09
 Reference value :  1.97271e-09
 Reference value :  2.78740e-09
 Reference value :  4.41677e-09
 Reference value :  5.99041e-09
 Reference value :  8.42851e-09
 Reference value :  1.22283e-08
 Reference value :  1.98279e-08
 Reference value :  2.77990e-08
 Reference value :  3.54245e-08
 Reference value :  4.46971e-08
 Reference value :  5.49721e-08
 Reference value :  7.44841e-08
 Reference value :  9.67708e-08
 Reference value :  1.18610e-07
 Reference value :  1.51131e-07
 Reference value :  1.85426e-07
 Reference value :  1.89265e-07
 Reference value :  1.96945e-07
 Reference value :  2.06734e-07
 Reference value :  2.18127e-07
 Reference value :  2.26022e-07
 Reference value :  2.33598e-07
 Reference value :  2.41463e-07
 Reference value :  2.47809e-07
 Reference value :  2.54801e-07
 Reference value :  2.61098e-07
 Reference value :  2.68958e-07
 Reference value :  2.75602e-07
 Reference value :  2.82670e-07
 Reference value :  2.88884e-07
 Reference value :  2.95656e-07
 Reference value :  3.02830e-07
 Reference value :  3.11016e-07
 Reference value :  3.18032e-07
 Reference value :  3.25668e-07
 Reference value :  3.34817e-07
 Reference value :  3.44541e-07
 Reference value :  3.60701e-07
 Reference value :  3.80541e-07
 Reference value :  4.07408e-07
 Reference value :  4.35787e-07
 Reference value :  4.92544e-07
 Reference value :  5.00000e-07
 Reference value :  5.01432e-07
 Reference value :  5.04297e-07
 Reference value :  5.10026e-07
 Reference value :  5.18434e-07
 Reference value :  5.26797e-07
 Reference value :  5.36845e-07
 Reference value :  5.49656e-07
 Reference value :  5.61613e-07
 Reference value :  5.85525e-07
 Reference value :  6.12548e-07
 Reference value :  6.46971e-07
 Reference value :  6.75745e-07
 Reference value :  7.05344e-07
 Reference value :  7.42087e-07
 Reference value :  8.00119e-07
 Reference value :  8.69804e-07
 Reference value :  9.30800e-07
 Reference value :  9.95631e-07
 Reference value :  1.00050e-06
 Reference value :  1.00055e-06
 Reference value :  1.00065e-06
 Reference value :  1.00085e-06
 Reference value :  1.00100e-06
 Reference value :  1.00104e-06
 Reference value :  1.00111e-06
 Reference value :  1.00126e-06
 Reference value :  1.00153e-06
 Reference value :  1.00181e-06
 Reference value :  1.00216e-06
 Reference value :  1.00273e-06
 Reference value :  1.00385e-06
 Reference value :  1.00611e-06
 Reference value :  1.01061e-06
 Reference value :  1.01616e-06
 Reference value :  1.02181e-06
 Reference value :  1.02963e-06
 Reference value :  1.03975e-06
 Reference value :  1.05414e-06
 Reference value :  1.07253e-06
 Reference value :  1.08951e-06
 Reference value :  1.10648e-06
 Reference value :  1.11829e-06
 Reference value :  1.12955e-06
 Reference value :  1.13676e-06
 Reference value :  1.14439e-06
 Reference value :  1.15314e-06
 Reference value :  1.16347e-06
 Reference value :  1.18049e-06
 Reference value :  1.20608e-06
 Reference value :  1.25109e-06
 Reference value :  1.33088e-06
 Reference value :  1.42058e-06
 Reference value :  1.52637e-06
 Reference value :  1.53052e-06
 Reference value :  1.53883e-06
 Reference value :  1.55543e-06
 Reference value :  1.58804e-06
 Reference value :  1.62366e-06
 Reference value :  1.65588e-06
 Reference value :  1.68585e-06
 Reference value :  1.72032e-06
 Reference value :  1.74866e-06
 Reference value :  1.77908e-06
 Reference value :  1.81365e-06
 Reference value :  1.85053e-06
 Reference value :  1.90027e-06
 Reference value :  1.96090e-06
 Reference value :  2.00000e-06
 Reference value :  2.00005e-06
 Reference value :  2.00015e-06
 Reference value :  2.00035e-06
 Reference value :  2.00050e-06
 Reference value :  2.00051e-06
 Reference value :  2.00053e-06
 Reference value :  2.00057e-06
 Reference value :  2.00064e-06
 Reference value :  2.00079e-06
 Reference value :  2.00109e-06
 Reference value :  2.00169e-06
 Reference value :  2.00258e-06
 Reference value :  2.00390e-06
 Reference value :  2.00570e-06
 Reference value :  2.00865e-06
 Reference value :  2.01238e-06
 Reference value :  2.01630e-06
 Reference value :  2.02194e-06
 Reference value :  2.03272e-06
 Reference value :  2.04952e-06
 Reference value :  2.08313e-06
 Reference value :  2.13462e-06
 Reference value :  2.22799e-06
 Reference value :  2.40099e-06
 Reference value :  2.40358e-06
 Reference value :  2.40878e-06
 Reference value :  2.41918e-06
 Reference value :  2.43998e-06
 Reference value :  2.48158e-06
 Reference value :  2.56478e-06
 Reference value :  2.57696e-06
 Reference value :  2.60130e-06
 Reference value :  2.62727e-06
 Reference value :  2.65313e-06
 Reference value :  2.67219e-06
 Reference value :  2.69303e-06
 Reference value :  2.71549e-06
 Reference value :  2.74874e-06
 Reference value :  2.78795e-06
 Reference value :  2.83529e-06
 Reference value :  2.88425e-06
 Reference value :  2.94988e-06
 Reference value :  3.00050e-06
 Reference value :  3.00055e-06
 Reference value :  3.00065e-06
 Reference value :  3.00085e-06
 Reference value :  3.00100e-06
 Reference value :  3.00104e-06
 Reference value :  3.00111e-06
 Reference value :  3.00125e-06
 Reference value :  3.00153e-06
 Reference value :  3.00182e-06
 Reference value :  3.00216e-06
 Reference value :  3.00271e-06
 Reference value :  3.00380e-06
 Reference value :  3.00597e-06
 Reference value :  3.01032e-06
 Reference value :  3.01903e-06
 Reference value :  3.03115e-06
 Reference value :  3.05309e-06
 Reference value :  3.07569e-06
 Reference value :  3.10836e-06
 Reference value :  3.13864e-06
 Reference value :  3.16942e-06
 Reference value :  3.19177e-06
 Reference value :  3.21271e-06
 Reference value :  3.23342e-06
 Reference value :  3.25895e-06
 Reference value :  3.28990e-06
 Reference value :  3.32794e-06
 Reference value :  3.37811e-06
 Reference value :  3.44308e-06
 Reference value :  3.51506e-06
 Reference value :  3.56392e-06
 Reference value :  3.60931e-06
 Reference value :  3.67414e-06
 Reference value :  3.68147e-06
 Reference value :  3.69612e-06
 Reference value :  3.72543e-06
 Reference value :  3.76099e-06
 Reference value :  3.79430e-06
 Reference value :  3.81748e-06
 Reference value :  3.84012e-06
 Reference value :  3.86237e-06
 Reference value :  3.88754e-06
 Reference value :  3.92076e-06
 Reference value :  3.95823e-06
 Reference value :  4.00000e-06
 Reference value :  4.00005e-06
 Reference value :  4.00015e-06
 Reference value :  4.00035e-06
 Reference value :  4.00050e-06
 Reference value :  4.00051e-06
 Reference value :  4.00052e-06
 Reference value :  4.00056e-06
 Reference value :  4.00062e-06
 Reference value :  4.00076e-06
 Reference value :  4.00102e-06
 Reference value :  4.00156e-06
 Reference value :  4.00262e-06
 Reference value :  4.00438e-06
 Reference value :  4.00631e-06
 Reference value :  4.00990e-06
 Reference value :  4.01412e-06
 Reference value :  4.02118e-06
 Reference value :  4.02896e-06
 Reference value :  4.03821e-06
 Reference value :  4.05670e-06
 Reference value :  4.09163e-06
 Reference value :  4.14124e-06
 Reference value :  4.19780e-06
 Reference value :  4.26403e-06
 Reference value :  4.35189e-06
 Reference value :  4.46884e-06
 Reference value :  4.58563e-06
 Reference value :  4.71779e-06
 Reference value :  4.88482e-06
 Reference value :  5.00050e-06
 Reference value :  5.00055e-06
 Reference value :  5.00065e-06
 Reference value :  5.00085e-06
 Reference value :  5.00100e-06
 Reference value :  5.00104e-06
 Reference value :  5.00111e-06
 Reference value :  5.00126e-06
 Reference value :  5.00153e-06
 Reference value :  5.00182e-06
 Reference value :  5.00218e-06
 Reference value :  5.00274e-06
 Reference value :  5.00387e-06
 Reference value :  5.00613e-06
 Reference value :  5.01066e-06
 Reference value :  5.01970e-06
 Reference value :  5.03324e-06
 Reference value :  5.05056e-06
 Reference value :  5.07572e-06
 Reference value :  5.10913e-06
 Reference value :  5.15744e-06
 Reference value :  5.20403e-06
 Reference value :  5.29004e-06
 Reference value :  5.42119e-06
 Reference value :  5.56873e-06
 Reference value :  5.78798e-06
 Reference value :  6.00000e-06
 Reference value :  6.00005e-06
 Reference value :  6.00015e-06
 Reference value :  6.00035e-06
 Reference value :  6.00050e-06
 Reference value :  6.00051e-06
 Reference value :  6.00054e-06
 Reference value :  6.00059e-06
 Reference value :  6.00069e-06
 Reference value :  6.00089e-06
 Reference value :  6.00129e-06
 Reference value :  6.00209e-06
 Reference value :  6.00370e-06
 Reference value :  6.00519e-06
 Reference value :  6.00816e-06
 Reference value :  6.01153e-06
 Reference value :  6.01825e-06
 Reference value :  6.02581e-06
 Reference value :  6.03375e-06
 Reference value :  6.04695e-06
 Reference value :  6.06572e-06
 Reference value :  6.09695e-06
 Reference value :  6.15321e-06
 Reference value :  6.24779e-06
 Reference value :  6.39341e-06
 Reference value :  6.39632e-06
 Reference value :  6.40214e-06
 Reference value :  6.41378e-06
 Reference value :  6.43707e-06
 Reference value :  6.48364e-06
 Reference value :  6.52183e-06
 Reference value :  6.55098e-06
 Reference value :  6.57874e-06
 Reference value :  6.60420e-06
 Reference value :  6.63499e-06
 Reference value :  6.66633e-06
 Reference value :  6.70513e-06
 Reference value :  6.75205e-06
 Reference value :  6.79530e-06
 Reference value :  6.83067e-06
 Reference value :  6.86765e-06
 Reference value :  6.90653e-06
 Reference value :  6.94646e-06
 Reference value :  6.99021e-06
 Reference value :  7.00050e-06
 Reference value :  7.00055e-06
 Reference value :  7.00065e-06
 Reference value :  7.00085e-06
 Reference value :  7.00100e-06
 Reference value :  7.00104e-06
 Reference value :  7.00111e-06
 Reference value :  7.00125e-06
 Reference value :  7.00154e-06
 Reference value :  7.00182e-06
 Reference value :  7.00218e-06
 Reference value :  7.00275e-06
 Reference value :  7.00389e-06
 Reference value :  7.00617e-06
 Reference value :  7.01072e-06
 Reference value :  7.01675e-06
 Reference value :  7.02880e-06
 Reference value :  7.04514e-06
 Reference value :  7.06921e-06
 Reference value :  7.09598e-06
 Reference value :  7.13296e-06
 Reference value :  7.17008e-06
 Reference value :  7.24431e-06
 Reference value :  7.36641e-06
 Reference value :  7.52691e-06
 Reference value :  7.72477e-06
 Reference value :  7.98086e-06
 Reference value :  8.00000e-06
 Reference value :  8.00005e-06
 Reference value :  8.00015e-06
 Reference value :  8.00035e-06
 Reference value :  8.00050e-06
 Reference value :  8.00051e-06
 Reference value :  8.00053e-06
 Reference value :  8.00058e-06
 Reference value :  8.00066e-06
 Reference value :  8.00083e-06
 Reference value :  8.00118e-06
 Reference value :  8.00187e-06
 Reference value :  8.00325e-06
 Reference value :  8.00600e-06
 Reference value :  8.01152e-06
 Reference value :  8.02255e-06
 Reference value :  8.04461e-06
 Reference value :  8.08873e-06
 Reference value :  8.14046e-06
 Reference value :  8.20730e-06
 Reference value :  8.31275e-06
 Reference value :  8.49224e-06
 Reference value :  8.65696e-06
 Reference value :  8.92299e-06
 Reference value :  9.00050e-06
 Reference value :  9.00055e-06
 Reference value :  9.00065e-06
 Reference value :  9.00085e-06
 Reference value :  9.00100e-06
 Reference value :  9.00103e-06
 Reference value :  9.00109e-06
 Reference value :  9.00120e-06
 Reference value :  9.00144e-06
 Reference value :  9.00176e-06
 Reference value :  9.00212e-06
 Reference value :  9.00272e-06
 Reference value :  9.00393e-06
 Reference value :  9.00634e-06
 Reference value :  9.01115e-06
 Reference value :  9.02078e-06
 Reference value :  9.04004e-06
 Reference value :  9.07237e-06
 Reference value :  9.11133e-06
 Reference value :  9.16996e-06
 Reference value :  9.25221e-06
 Reference value :  9.38543e-06
 Reference value :  9.59771e-06
 Reference value :  9.87223e-06
 Reference value :  1.00000e-05
 Reference value :  1.00000e-05
 Reference value :  1.00001e-05
 Reference value :  1.00003e-05
 Reference value :  1.00005e-05
 Reference value :  1.00005e-05
 Reference value :  1.00005e-05
 Reference value :  1.00006e-05
 Reference value :  1.00007e-05
 Reference value :  1.00008e-05
 Reference value :  1.00012e-05
 Reference value :  1.00018e-05
 Reference value :  1.00032e-05
 Reference value :  1.00059e-05
 Reference value :  1.00113e-05
 Reference value :  1.00220e-05
 Reference value :  1.00436e-05
 Reference value :  1.00867e-05
 Reference value :  1.01599e-05
 Reference value :  1.02377e-05
 Reference value :  1.03554e-05
 Reference value :  1.05689e-05
 Reference value :  1.07702e-05
 Reference value :  1.09740e-05
 Reference value :  1.10005e-05
 Reference value :  1.10005e-05
 Reference value :  1.10006e-05
 Reference value :  1.10008e-05
 Reference value :  1.10010e-05
 Reference value :  1.10010e-05
 Reference value :  1.10011e-05
 Reference value :  1.10012e-05
 Reference value :  1.10015e-05
 Reference value :  1.10018e-05
 Reference value :  1.10022e-05
 Reference value :  1.10029e-05
 Reference value :  1.10041e-05
 Reference value :  1.10067e-05
 Reference value :  1.10118e-05
 Reference value :  1.10221e-05
 Reference value :  1.10425e-05
 Reference value :  1.10835e-05
 Reference value :  1.11294e-05
 Reference value :  1.12050e-05
 Reference value :  1.12992e-05
 Reference value :  1.14013e-05
 Reference value :  1.14863e-05
 Reference value :  1.15779e-05
 Reference value :  1.16904e-05
 Reference value :  1.18262e-05
 Reference value :  1.20000e-05
 Reference value :  1.20000e-05
 Reference value :  1.20001e-05
 Reference value :  1.20003e-05
 Reference value :  1.20005e-05
 Reference value :  1.20005e-05
 Reference value :  1.20005e-05
 Reference value :  1.20006e-05
 Reference value :  1.20007e-05
 Reference value :  1.20008e-05
 Reference value :  1.20012e-05
 Reference value :  1.20018e-05
 Reference value :  1.20032e-05
 Reference value :  1.20059e-05
 Reference value :  1.20113e-05
 Reference value :  1.20221e-05
 Reference value :  1.20437e-05
 Reference value :  1.20868e-05
 Reference value :  1.21732e-05
 Reference value :  1.22823e-05
 Reference value :  1.24162e-05
 Reference value :  1.26244e-05
 Reference value :  1.28322e-05
 Reference value :  1.30005e-05
 Reference value :  1.30006e-05
 Reference value :  1.30007e-05
 Reference value :  1.30009e-05
 Reference value :  1.30010e-05
 Reference value :  1.30010e-05
 Reference value :  1.30011e-05
 Reference value :  1.30012e-05
 Reference value :  1.30015e-05
 Reference value :  1.30018e-05
 Reference value :  1.30023e-05
 Reference value :  1.30029e-05
 Reference value :  1.30042e-05
 Reference value :  1.30068e-05
 Reference value :  1.30121e-05
 Reference value :  1.30225e-05
 Reference value :  1.30434e-05
 Reference value :  1.30853e-05
 Reference value :  1.31362e-05
 Reference value :  1.32187e-05
 Reference value :  1.33318e-05
 Reference value :  1.35393e-05
 Reference value :  1.38260e-05
 Reference value :  1.40000e-05
 Reference value :  1.40000e-05
 Reference value :  1.40002e-05
 Reference value :  1.40004e-05
 Reference value :  1.40005e-05
 Reference value :  1.40005e-05
 Reference value :  1.40005e-05
 Reference value :  1.40006e-05
 Reference value :  1.40007e-05
 Reference value :  1.40008e-05
 Reference value :  1.40012e-05
 Reference value :  1.40018e-05
 Reference value :  1.40032e-05
 Reference value :  1.40059e-05
 Reference value :  1.40113e-05
 Reference value :  1.40220e-05
 Reference value :  1.40435e-05
 Reference value :  1.40866e-05
 Reference value :  1.41727e-05
 Reference value :  1.42860e-05
 Reference value :  1.44174e-05
 Reference value :  1.46252e-05
 Reference value :  1.48327e-05
 Reference value :  1.50005e-05
 Reference value :  1.50005e-05
 Reference value :  1.50007e-05
 Reference value :  1.50009e-05
 Reference value :  1.50010e-05
 Reference value :  1.50010e-05
 Reference value :  1.50011e-05
 Reference value :  1.50012e-05
 Reference value :  1.50015e-05
 Reference value :  1.50018e-05
 Reference value :  1.50023e-05
 Reference value :  1.50029e-05
 Reference value :  1.50042e-05
 Reference value :  1.50068e-05
 Reference value :  1.50121e-05
 Reference value :  1.50225e-05
 Reference value :  1.50434e-05
 Reference value :  1.50853e-05
 Reference value :  1.51371e-05
 Reference value :  1.52204e-05
 Reference value :  1.53355e-05
 Reference value :  1.55458e-05
 Reference value :  1.58386e-05
 Reference value :  1.60000e-05
 Reference value :  1.60000e-05
 Reference value :  1.60001e-05
 Reference value :  1.60004e-05
 Reference value :  1.60005e-05
 Reference value :  1.60005e-05
 Reference value :  1.60005e-05
 Reference value :  1.60006e-05
 Reference value :  1.60007e-05
 Reference value :  1.60008e-05
 Reference value :  1.60012e-05
 Reference value :  1.60018e-05
 Reference value :  1.60032e-05
 Reference value :  1.60059e-05
 Reference value :  1.60113e-05
 Reference value :  1.60220e-05
 Reference value :  1.60436e-05
 Reference value :  1.60866e-05
 Reference value :  1.61727e-05
 Reference value :  1.62863e-05
 Reference value :  1.64179e-05
 Reference value :  1.66262e-05
 Reference value :  1.68343e-05
 Reference value :  1.70005e-05
 Reference value :  1.70006e-05
 Reference value :  1.70007e-05
 Reference value :  1.70009e-05
 Reference value :  1.70010e-05
 Reference value :  1.70010e-05
 Reference value :  1.70011e-05
 Reference value :  1.70012e-05
 Reference value :  1.70015e-05
 Reference value :  1.70018e-05
 Reference value :  1.70023e-05
 Reference value :  1.70029e-05
 Reference value :  1.70042e-05
 Reference value :  1.70068e-05
 Reference value :  1.70121e-05
 Reference value :  1.70225e-05
 Reference value :  1.70434e-05
 Reference value :  1.70853e-05
 Reference value :  1.71375e-05
 Reference value :  1.72211e-05
 Reference value :  1.73372e-05
 Reference value :  1.75488e-05
 Reference value :  1.78445e-05
 Reference value :  1.80000e-05
 Reference value :  1.80001e-05
 Reference value :  1.80002e-05
 Reference value :  1.80004e-05
 Reference value :  1.80005e-05
 Reference value :  1.80005e-05
 Reference value :  1.80005e-05
 Reference value :  1.80006e-05
 Reference value :  1.80007e-05
 Reference value :  1.80008e-05
 Reference value :  1.80012e-05
 Reference value :  1.80018e-05
 Reference value :  1.80032e-05
 Reference value :  1.80059e-05
 Reference value :  1.80113e-05
 Reference value :  1.80220e-05
 Reference value :  1.80436e-05
 Reference value :  1.80866e-05
 Reference value :  1.81728e-05
 Reference value :  1.82865e-05
 Reference value :  1.84182e-05
 Reference value :  1.86269e-05
 Reference value :  1.88353e-05
 Reference value :  1.90005e-05
 Reference value :  1.90006e-05
 Reference value :  1.90007e-05
 Reference value :  1.90009e-05
 Reference value :  1.90010e-05
 Reference value :  1.90010e-05
 Reference value :  1.90011e-05
 Reference value :  1.90012e-05
 Reference value :  1.90015e-05
 Reference value :  1.90018e-05
 Reference value :  1.90023e-05
 Reference value :  1.90029e-05
 Reference value :  1.90042e-05
 Reference value :  1.90068e-05
 Reference value :  1.90121e-05
 Reference value :  1.90225e-05
 Reference value :  1.90434e-05
 Reference value :  1.90853e-05
 Reference value :  1.91378e-05
 Reference value :  1.92216e-05
 Reference value :  1.93383e-05
 Reference value :  1.95507e-05
 Reference value :  1.98482e-05
 Reference value :  2.00000e-05
 Reference value :  2.00001e-05
 Reference value :  2.00002e-05
 Reference value :  2.00004e-05
 Reference value :  2.00005e-05
 Reference value :  2.00005e-05
 Reference value :  2.00005e-05
 Reference value :  2.00006e-05
 Reference value :  2.00007e-05
 Reference value :  2.00008e-05
 Reference value :  2.00012e-05
 Reference value :  2.00018e-05
 Reference value :  2.00032e-05
 Reference value :  2.00059e-05
 Reference value :  2.00113e-05
 Reference value :  2.00220e-05
 Reference value :  2.00436e-05
 Reference value :  2.00866e-05
 Reference value :  2.01728e-05
 Reference value :  2.02867e-05
 Reference value :  2.04185e-05
 Reference value :  2.06273e-05
 Reference value :  2.08360e-05
 Reference value :  2.10005e-05
 Reference value :  2.10005e-05
 Reference value :  2.10006e-05
 Reference value :  2.10008e-05
 Reference value :  2.10010e-05
 Reference value :  2.10010e-05
 Reference value :  2.10011e-05
 Reference value :  2.10012e-05
 Reference value :  2.10015e-05
 Reference value :  2.10018e-05
 Reference value :  2.10023e-05
 Reference value :  2.10029e-05
 Reference value :  2.10042e-05
 Reference value :  2.10068e-05
 Reference value :  2.10121e-05
 Reference value :  2.10225e-05
 Reference value :  2.10434e-05
 Reference value :  2.10853e-05
 Reference value :  2.11380e-05
 Reference value :  2.12219e-05
 Reference value :  2.13390e-05
 Reference value :  2.15520e-05
 Reference value :  2.18507e-05
 Reference value :  2.20000e-05
 Reference value :  2.20000e-05
 Reference value :  2.20001e-05
 Reference value :  2.20004e-05
 Reference value :  2.20005e-05
 Reference value :  2.20005e-05
 Reference value :  2.20005e-05
 Reference value :  2.20006e-05
 Reference value :  2.20007e-05
 Reference value :  2.20008e-05
 Reference value :  2.20012e-05
 Reference value :  2.20018e-05
 Reference value :  2.20032e-05
 Reference value :  2.20059e-05
 Reference value :  2.20113e-05
 Reference value :  2.20220e-05
 Reference value :  2.20436e-05
 Reference value :  2.20866e-05
 Reference value :  2.21728e-05
 Reference value :  2.22868e-05
 Reference value :  2.24186e-05
 Reference value :  2.26276e-05
 Reference value :  2.28364e-05
 Reference value :  2.30005e-05
 Reference value :  2.30005e-05
 Reference value :  2.30006e-05
 Reference value :  2.30008e-05
 Reference value :  2.30010e-05
 Reference value :  2.30010e-05
 Reference value :  2.30011e-05
 Reference value :  2.30012e-05
 Reference value :  2.30015e-05
 Reference value :  2.30018e-05
 Reference value :  2.30023e-05
 Reference value :  2.30029e-05
 Reference value :  2.30042e-05
 Reference value :  2.30068e-05
 Reference value :  2.30121e-05
 Reference value :  2.30225e-05
 Reference value :  2.30435e-05
 Reference value :  2.30853e-05
 Reference value :  2.31381e-05
 Reference value :  2.32222e-05
 Reference value :  2.33395e-05
 Reference value :  2.35529e-05
 Reference value :  2.38524e-05
 Reference value :  2.40000e-05
 Reference value :  2.40001e-05
 Reference value :  2.40002e-05
 Reference value :  2.40004e-05
 Reference value :  2.40005e-05
 Reference value :  2.40005e-05
 Reference value :  2.40005e-05
 Reference value :  2.40006e-05
 Reference value :  2.40007e-05
 Reference value :  2.40008e-05
 Reference value :  2.40012e-05
 Reference value :  2.40018e-05
 Reference value :  2.40032e-05
 Reference value :  2.40059e-05
 Reference value :  2.40113e-05
 Reference value :  2.40220e-05
 Reference value :  2.40436e-05
 Reference value :  2.40866e-05
 Reference value :  2.41728e-05
 Reference value :  2.42869e-05
 Reference value :  2.44187e-05
 Reference value :  2.46278e-05
 Reference value :  2.48368e-05
 Reference value :  2.50005e-05
 Reference value :  2.50005e-05
 Reference value :  2.50006e-05
 Reference value :  2.50008e-05
 Reference value :  2.50010e-05
 Reference value :  2.50010e-05
 Reference value :  2.50011e-05
 Reference value :  2.50012e-05
 Reference value :  2.50015e-05
 Reference value :  2.50018e-05
 Reference value :  2.50023e-05
 Reference value :  2.50029e-05
 Reference value :  2.50042e-05
 Reference value :  2.50068e-05
 Reference value :  2.50121e-05
 Reference value :  2.50225e-05
 Reference value :  2.50435e-05
 Reference value :  2.50853e-05
 Reference value :  2.51382e-05
 Reference value :  2.52223e-05
 Reference value :  2.53399e-05
 Reference value :  2.55536e-05
 Reference value :  2.58537e-05
 Reference value :  2.60000e-05
 Reference value :  2.60001e-05
 Reference value :  2.60002e-05
 Reference value :  2.60004e-05
 Reference value :  2.60005e-05
 Reference value :  2.60005e-05
 Reference value :  2.60005e-05
 Reference value :  2.60006e-05
 Reference value :  2.60007e-05
 Reference value :  2.60008e-05
 Reference value :  2.60012e-05
 Reference value :  2.60018e-05
 Reference value :  2.60032e-05
 Reference value :  2.60059e-05
 Reference value :  2.60113e-05
 Reference value :  2.60220e-05
 Reference value :  2.60436e-05
 Reference value :  2.60866e-05
 Reference value :  2.61728e-05
 Reference value :  2.62869e-05
 Reference value :  2.64188e-05
 Reference value :  2.66280e-05
 Reference value :  2.68371e-05
 Reference value :  2.70005e-05
 Reference value :  2.70006e-05
 Reference value :  2.70007e-05
 Reference value :  2.70009e-05
 Reference value :  2.70010e-05
 Reference value :  2.70010e-05
 Reference value :  2.70011e-05
 Reference value :  2.70012e-05
 Reference value :  2.70015e-05
 Reference value :  2.70018e-05
 Reference value :  2.70023e-05
 Reference value :  2.70029e-05
 Reference value :  2.70042e-05
 Reference value :  2.70068e-05
 Reference value :  2.70121e-05
 Reference value :  2.70225e-05
 Reference value :  2.70435e-05
 Reference value :  2.70853e-05
 Reference value :  2.71383e-05
 Reference value :  2.72225e-05
 Reference value :  2.73401e-05
 Reference value :  2.75540e-05
 Reference value :  2.78547e-05
 Reference value :  2.80000e-05
 Reference value :  2.80000e-05
 Reference value :  2.80001e-05
 Reference value :  2.80004e-05
 Reference value :  2.80005e-05
 Reference value :  2.80005e-05
 Reference value :  2.80005e-05
 Reference value :  2.80006e-05
 Reference value :  2.80007e-05
 Reference value :  2.80008e-05
 Reference value :  2.80012e-05
 Reference value :  2.80018e-05
 Reference value :  2.80032e-05
 Reference value :  2.80059e-05
 Reference value :  2.80113e-05
 Reference value :  2.80220e-05
 Reference value :  2.80436e-05
 Reference value :  2.80866e-05
 Reference value :  2.81728e-05
 Reference value :  2.82870e-05
 Reference value :  2.84189e-05
 Reference value :  2.86281e-05
 Reference value :  2.88373e-05
 Reference value :  2.90005e-05
 Reference value :  2.90006e-05
 Reference value :  2.90007e-05
 Reference value :  2.90009e-05
 Reference value :  2.90010e-05
 Reference value :  2.90010e-05
 Reference value :  2.90011e-05
 Reference value :  2.90012e-05
 Reference value :  2.90015e-05
 Reference value :  2.90018e-05
 Reference value :  2.90023e-05
 Reference value :  2.90029e-05
 Reference value :  2.90042e-05
 Reference value :  2.90068e-05
 Reference value :  2.90121e-05
 Reference value :  2.90225e-05
 Reference value :  2.90435e-05
 Reference value :  2.90853e-05
 Reference value :  2.91383e-05
 Reference value :  2.92226e-05
 Reference value :  2.93404e-05
 Reference value :  2.95544e-05
 Reference value :  2.98555e-05
 Reference value :  3.00000e-05
 Reference value :  3.00001e-05
 Reference value :  3.00002e-05
 Reference value :  3.00004e-05
 Reference value :  3.00005e-05
 Reference value :  3.00005e-05
 Reference value :  3.00005e-05
 Reference value :  3.00006e-05
 Reference value :  3.00007e-05
 Reference value :  3.00008e-05
 Reference value :  3.00012e-05
 Reference value :  3.00018e-05
 Reference value :  3.00032e-05
 Reference value :  3.00059e-05
 Reference value :  3.00113e-05
 Reference value :  3.00220e-05
 Reference value :  3.00436e-05
 Reference value :  3.00866e-05
 Reference value :  3.01728e-05
 Reference value :  3.02870e-05
 Reference value :  3.04189e-05
 Reference value :  3.06282e-05
 Reference value :  3.08374e-05
 Reference value :  3.10005e-05
 Reference value :  3.10005e-05
 Reference value :  3.10006e-05
 Reference value :  3.10008e-05
 Reference value :  3.10010e-05
 Reference value :  3.10010e-05
 Reference value :  3.10011e-05
 Reference value :  3.10012e-05
 Reference value :  3.10015e-05
 Reference value :  3.10018e-05
 Reference value :  3.10023e-05
 Reference value :  3.10029e-05
 Reference value :  3.10042e-05
 Reference value :  3.10068e-05
 Reference value :  3.10121e-05
 Reference value :  3.10225e-05
 Reference value :  3.10435e-05
 Reference value :  3.10853e-05
 Reference value :  3.11384e-05
 Reference value :  3.12226e-05
 Reference value :  3.13405e-05
 Reference value :  3.15547e-05
 Reference value :  3.18560e-05
 Reference value :  3.20000e-05
 Reference value :  3.20000e-05
 Reference value :  3.20001e-05
 Reference value :  3.20003e-05
 Reference value :  3.20005e-05
 Reference value :  3.20005e-05
 Reference value :  3.20005e-05
 Reference value :  3.20006e-05
 Reference value :  3.20007e-05
 Reference value :  3.20008e-05
 Reference value :  3.20012e-05
 Reference value :  3.20018e-05
 Reference value :  3.20032e-05
 Reference value :  3.20059e-05
 Reference value :  3.20113e-05
 Reference value :  3.20220e-05
 Reference value :  3.20436e-05
 Reference value :  3.20866e-05
 Reference value :  3.21728e-05
 Reference value :  3.22870e-05
 Reference value :  3.24189e-05
 Reference value :  3.26283e-05
 Reference value :  3.28375e-05
 Reference value :  3.30005e-05
 Reference value :  3.30006e-05
 Reference value :  3.30007e-05
 Reference value :  3.30009e-05
 Reference value :  3.30010e-05
 Reference value :  3.30010e-05
 Reference value :  3.30011e-05
 Reference value :  3.30012e-05
 Reference value :  3.30015e-05
 Reference value :  3.30018e-05
 Reference value :  3.30023e-05
 Reference value :  3.30029e-05
 Reference value :  3.30042e-05
 Reference value :  3.30068e-05
 Reference value :  3.30121e-05
 Reference value :  3.30225e-05
 Reference value :  3.30435e-05
 Reference value :  3.30853e-05
 Reference value :  3.31384e-05
 Reference value :  3.32227e-05
 Reference value :  3.33407e-05
 Reference value :  3.35550e-05
 Reference value :  3.38565e-05
 Reference value :  3.40000e-05
No. of Data Rows : 955
ngspice-44 done
