
Note: Compatibility modes selected: hs a


Circuit: ** sch_path: /home/samantha/cace/sar-adc-using-sky130-pdk/runs/run_2025-09-01_15-13-24/parameters/sampling_rate/run_16/sampling_rate.sch

option SCALE: Scale is set to 1e-06 for instance and model parameters
option SCALE: Scale is set to 1e-06 for instance and model parameters
option SCALE: Scale is set to 1e-06 for instance and model parameters
option SCALE: Scale is set to 1e-06 for instance and model parameters
Doing analysis at TEMP = 27.000000 and TNOM = 27.000000

Using KLU as Direct Linear Solver
Operating point simulation skipped by 'uic',
  now using transient initial conditions.
 Reference value :  1.00000e-12
 Reference value :  1.02669e-12
 Reference value :  1.08006e-12
 Reference value :  1.18681e-12
 Reference value :  1.40031e-12
 Reference value :  1.65117e-12
 Reference value :  3.03269e-12
 Reference value :  4.12911e-12
 Reference value :  5.98738e-12
 Reference value :  1.32489e-11
 Reference value :  3.03182e-11
 Reference value :  9.85956e-11
 Reference value :  1.00000e-10
 Reference value :  1.02809e-10
 Reference value :  1.08426e-10
 Reference value :  1.39636e-10
 Reference value :  1.81248e-10
 Reference value :  4.30924e-10
 Reference value :  7.01492e-10
 Reference value :  1.00356e-09
 Reference value :  1.45168e-09
 Reference value :  1.96915e-09
 Reference value :  2.59209e-09
 Reference value :  3.33698e-09
 Reference value :  4.25959e-09
 Reference value :  6.41304e-09
 Reference value :  7.19018e-09
 Reference value :  7.92375e-09
 Reference value :  8.68382e-09
 Reference value :  1.03014e-08
 Reference value :  1.09879e-08
 Reference value :  1.16564e-08
 Reference value :  1.24051e-08
 Reference value :  1.45354e-08
 Reference value :  2.17777e-08
 Reference value :  2.75705e-08
 Reference value :  3.22724e-08
 Reference value :  3.64196e-08
 Reference value :  4.57445e-08
 Reference value :  5.87067e-08
 Reference value :  8.94422e-08
 Reference value :  1.88803e-07
 Reference value :  2.50110e-07
 Reference value :  2.50130e-07
 Reference value :  2.50170e-07
 Reference value :  2.50208e-07
 Reference value :  2.50253e-07
 Reference value :  2.50314e-07
 Reference value :  2.50567e-07
 Reference value :  2.51032e-07
 Reference value :  2.51858e-07
 Reference value :  2.52955e-07
 Reference value :  2.53708e-07
 Reference value :  2.54297e-07
 Reference value :  2.54917e-07
 Reference value :  2.55573e-07
 Reference value :  2.56299e-07
 Reference value :  2.57214e-07
 Reference value :  2.60267e-07
 Reference value :  2.66913e-07
 Reference value :  2.89382e-07
 Reference value :  3.79255e-07
 Reference value :  5.00000e-07
 Reference value :  5.00030e-07
 Reference value :  5.00070e-07
 Reference value :  5.00108e-07
 Reference value :  5.00156e-07
 Reference value :  5.00345e-07
 Reference value :  5.00863e-07
 Reference value :  5.01815e-07
 Reference value :  5.02311e-07
 Reference value :  5.02774e-07
 Reference value :  5.03342e-07
 Reference value :  5.03934e-07
 Reference value :  5.04594e-07
 Reference value :  5.05509e-07
 Reference value :  5.06431e-07
 Reference value :  5.07726e-07
 Reference value :  5.08912e-07
 Reference value :  5.10008e-07
 Reference value :  5.11172e-07
 Reference value :  5.12476e-07
 Reference value :  5.13775e-07
 Reference value :  5.15395e-07
 Reference value :  5.17450e-07
 Reference value :  5.19348e-07
 Reference value :  5.23142e-07
 Reference value :  5.27677e-07
 Reference value :  5.49001e-07
 Reference value :  6.21085e-07
 Reference value :  7.50100e-07
 Reference value :  7.50110e-07
 Reference value :  7.50170e-07
 Reference value :  7.50200e-07
 Reference value :  7.50224e-07
 Reference value :  7.50318e-07
 Reference value :  7.50597e-07
 Reference value :  7.51257e-07
 Reference value :  7.51700e-07
 Reference value :  7.52703e-07
 Reference value :  7.53493e-07
 Reference value :  7.54007e-07
 Reference value :  7.54593e-07
 Reference value :  7.55913e-07
 Reference value :  7.56926e-07
 Reference value :  7.59789e-07
 Reference value :  7.67050e-07
 Reference value :  7.74799e-07
 Reference value :  8.13883e-07
 Reference value :  8.65994e-07
 Reference value :  9.70216e-07
 Reference value :  1.00000e-06
 Reference value :  1.00001e-06
 Reference value :  1.00003e-06
 Reference value :  1.00010e-06
 Reference value :  1.00012e-06
 Reference value :  1.00022e-06
 Reference value :  1.00052e-06
 Reference value :  1.00086e-06
 Reference value :  1.00182e-06
 Reference value :  1.00231e-06
 Reference value :  1.00278e-06
 Reference value :  1.00333e-06
 Reference value :  1.00449e-06
 Reference value :  1.00522e-06
 Reference value :  1.00586e-06
 Reference value :  1.00654e-06
 Reference value :  1.00749e-06
 Reference value :  1.01010e-06
 Reference value :  1.01153e-06
 Reference value :  1.01280e-06
 Reference value :  1.01379e-06
 Reference value :  1.01473e-06
 Reference value :  1.01587e-06
 Reference value :  1.01802e-06
 Reference value :  1.02096e-06
 Reference value :  1.02585e-06
 Reference value :  1.03875e-06
 Reference value :  1.07622e-06
 Reference value :  1.20026e-06
 Reference value :  1.25011e-06
 Reference value :  1.25017e-06
 Reference value :  1.25020e-06
 Reference value :  1.25022e-06
 Reference value :  1.25032e-06
 Reference value :  1.25045e-06
 Reference value :  1.25084e-06
 Reference value :  1.25127e-06
 Reference value :  1.25171e-06
 Reference value :  1.25273e-06
 Reference value :  1.25352e-06
 Reference value :  1.25404e-06
 Reference value :  1.25527e-06
 Reference value :  1.25600e-06
 Reference value :  1.25834e-06
 Reference value :  1.26319e-06
 Reference value :  1.27672e-06
 Reference value :  1.32786e-06
 Reference value :  1.50000e-06
 Reference value :  1.50001e-06
 Reference value :  1.50007e-06
 Reference value :  1.50011e-06
 Reference value :  1.50016e-06
 Reference value :  1.50022e-06
 Reference value :  1.50052e-06
 Reference value :  1.50086e-06
 Reference value :  1.50181e-06
 Reference value :  1.50278e-06
 Reference value :  1.50333e-06
 Reference value :  1.50391e-06
 Reference value :  1.50549e-06
 Reference value :  1.50716e-06
 Reference value :  1.50801e-06
 Reference value :  1.50888e-06
 Reference value :  1.50983e-06
 Reference value :  1.51096e-06
 Reference value :  1.51466e-06
 Reference value :  1.52441e-06
 Reference value :  1.53531e-06
 Reference value :  1.59010e-06
 Reference value :  1.75010e-06
 Reference value :  1.75013e-06
 Reference value :  1.75017e-06
 Reference value :  1.75021e-06
 Reference value :  1.75026e-06
 Reference value :  1.75045e-06
 Reference value :  1.75084e-06
 Reference value :  1.75171e-06
 Reference value :  1.75215e-06
 Reference value :  1.75273e-06
 Reference value :  1.75351e-06
 Reference value :  1.75402e-06
 Reference value :  1.75461e-06
 Reference value :  1.75527e-06
 Reference value :  1.75598e-06
 Reference value :  1.75802e-06
 Reference value :  1.76275e-06
 Reference value :  1.77721e-06
 Reference value :  1.82341e-06
 Reference value :  2.00000e-06
 Reference value :  2.00003e-06
 Reference value :  2.00010e-06
 Reference value :  2.00012e-06
 Reference value :  2.00022e-06
 Reference value :  2.00034e-06
 Reference value :  2.00086e-06
 Reference value :  2.00131e-06
 Reference value :  2.00182e-06
 Reference value :  2.00278e-06
 Reference value :  2.00332e-06
 Reference value :  2.00390e-06
 Reference value :  2.00449e-06
 Reference value :  2.00521e-06
 Reference value :  2.00586e-06
 Reference value :  2.00748e-06
 Reference value :  2.01007e-06
 Reference value :  2.01150e-06
 Reference value :  2.01276e-06
 Reference value :  2.01376e-06
 Reference value :  2.01470e-06
 Reference value :  2.01584e-06
 Reference value :  2.01685e-06
 Reference value :  2.01908e-06
 Reference value :  2.02068e-06
 Reference value :  2.02536e-06
 Reference value :  2.03850e-06
 Reference value :  2.07806e-06
 Reference value :  2.10461e-06
 Reference value :  2.12866e-06
 Reference value :  2.14549e-06
 Reference value :  2.15705e-06
 Reference value :  2.16792e-06
 Reference value :  2.17796e-06
 Reference value :  2.19602e-06
 Reference value :  2.21335e-06
 Reference value :  2.25010e-06
 Reference value :  2.25013e-06
 Reference value :  2.25020e-06
 Reference value :  2.25021e-06
 Reference value :  2.25026e-06
 Reference value :  2.25045e-06
 Reference value :  2.25060e-06
 Reference value :  2.25084e-06
 Reference value :  2.25171e-06
 Reference value :  2.25273e-06
 Reference value :  2.25346e-06
 Reference value :  2.25396e-06
 Reference value :  2.25513e-06
 Reference value :  2.25584e-06
 Reference value :  2.25661e-06
 Reference value :  2.25981e-06
 Reference value :  2.26662e-06
 Reference value :  2.29005e-06
 Reference value :  2.32130e-06
 Reference value :  2.35388e-06
 Reference value :  2.38387e-06
 Reference value :  2.39818e-06
 Reference value :  2.41139e-06
 Reference value :  2.45018e-06
 Reference value :  2.50000e-06
 Reference value :  2.50003e-06
 Reference value :  2.50007e-06
 Reference value :  2.50011e-06
 Reference value :  2.50016e-06
 Reference value :  2.50034e-06
 Reference value :  2.50086e-06
 Reference value :  2.50131e-06
 Reference value :  2.50231e-06
 Reference value :  2.50333e-06
 Reference value :  2.50391e-06
 Reference value :  2.50550e-06
 Reference value :  2.50638e-06
 Reference value :  2.50715e-06
 Reference value :  2.50801e-06
 Reference value :  2.50888e-06
 Reference value :  2.50983e-06
 Reference value :  2.51095e-06
 Reference value :  2.51463e-06
 Reference value :  2.51806e-06
 Reference value :  2.53499e-06
 Reference value :  2.58881e-06
 Reference value :  2.75010e-06
 Reference value :  2.75013e-06
 Reference value :  2.75020e-06
 Reference value :  2.75022e-06
 Reference value :  2.75032e-06
 Reference value :  2.75060e-06
 Reference value :  2.75127e-06
 Reference value :  2.75171e-06
 Reference value :  2.75273e-06
 Reference value :  2.75351e-06
 Reference value :  2.75402e-06
 Reference value :  2.75526e-06
 Reference value :  2.75598e-06
 Reference value :  2.75802e-06
 Reference value :  2.76274e-06
 Reference value :  2.77721e-06
 Reference value :  2.82339e-06
 Reference value :  3.00000e-06
 Reference value :  3.00003e-06
 Reference value :  3.00007e-06
 Reference value :  3.00011e-06
 Reference value :  3.00016e-06
 Reference value :  3.00034e-06
 Reference value :  3.00086e-06
 Reference value :  3.00131e-06
 Reference value :  3.00231e-06
 Reference value :  3.00278e-06
 Reference value :  3.00332e-06
 Reference value :  3.00449e-06
 Reference value :  3.00521e-06
 Reference value :  3.00586e-06
 Reference value :  3.00653e-06
 Reference value :  3.00853e-06
 Reference value :  3.01007e-06
 Reference value :  3.01150e-06
 Reference value :  3.01276e-06
 Reference value :  3.01376e-06
 Reference value :  3.01584e-06
 Reference value :  3.01685e-06
 Reference value :  3.01789e-06
 Reference value :  3.01908e-06
 Reference value :  3.02243e-06
 Reference value :  3.02833e-06
 Reference value :  3.03079e-06
 Reference value :  3.03403e-06
 Reference value :  3.03805e-06
 Reference value :  3.04084e-06
 Reference value :  3.04784e-06
 Reference value :  3.05758e-06
 Reference value :  3.06891e-06
 Reference value :  3.08818e-06
 Reference value :  3.13409e-06
 Reference value :  3.15800e-06
 Reference value :  3.21771e-06
 Reference value :  3.25011e-06
 Reference value :  3.25013e-06
 Reference value :  3.25020e-06
 Reference value :  3.25022e-06
 Reference value :  3.25032e-06
 Reference value :  3.25060e-06
 Reference value :  3.25127e-06
 Reference value :  3.25171e-06
 Reference value :  3.25273e-06
 Reference value :  3.25346e-06
 Reference value :  3.25396e-06
 Reference value :  3.25453e-06
 Reference value :  3.25585e-06
 Reference value :  3.25814e-06
 Reference value :  3.26273e-06
 Reference value :  3.27448e-06
 Reference value :  3.32150e-06
 Reference value :  3.50000e-06
 Reference value :  3.50003e-06
 Reference value :  3.50007e-06
 Reference value :  3.50010e-06
 Reference value :  3.50012e-06
 Reference value :  3.50022e-06
 Reference value :  3.50034e-06
 Reference value :  3.50086e-06
 Reference value :  3.50175e-06
 Reference value :  3.50268e-06
 Reference value :  3.50322e-06
 Reference value :  3.50379e-06
 Reference value :  3.50522e-06
 Reference value :  3.50605e-06
 Reference value :  3.50671e-06
 Reference value :  3.50748e-06
 Reference value :  3.50832e-06
 Reference value :  3.50925e-06
 Reference value :  3.51030e-06
 Reference value :  3.51386e-06
 Reference value :  3.52609e-06
 Reference value :  3.57501e-06
 Reference value :  3.64023e-06
 Reference value :  3.75011e-06
 Reference value :  3.75017e-06
 Reference value :  3.75021e-06
 Reference value :  3.75026e-06
 Reference value :  3.75044e-06
 Reference value :  3.75083e-06
 Reference value :  3.75126e-06
 Reference value :  3.75170e-06
 Reference value :  3.75270e-06
 Reference value :  3.75350e-06
 Reference value :  3.75401e-06
 Reference value :  3.75460e-06
 Reference value :  3.75527e-06
 Reference value :  3.75680e-06
 Reference value :  3.75765e-06
 Reference value :  3.75979e-06
 Reference value :  3.76345e-06
 Reference value :  3.77227e-06
 Reference value :  3.79469e-06
 Reference value :  3.81667e-06
 Reference value :  3.91438e-06
 Reference value :  4.00001e-06
 Reference value :  4.00003e-06
 Reference value :  4.00007e-06
 Reference value :  4.00010e-06
 Reference value :  4.00012e-06
 Reference value :  4.00016e-06
 Reference value :  4.00022e-06
 Reference value :  4.00034e-06
 Reference value :  4.00052e-06
 Reference value :  4.00086e-06
 Reference value :  4.00131e-06
 Reference value :  4.00182e-06
 Reference value :  4.00231e-06
 Reference value :  4.00278e-06
 Reference value :  4.00334e-06
 Reference value :  4.00457e-06
 Reference value :  4.00582e-06
 Reference value :  4.00733e-06
 Reference value :  4.00943e-06
 Reference value :  4.01047e-06
 Reference value :  4.01155e-06
 Reference value :  4.01268e-06
 Reference value :  4.01354e-06
 Reference value :  4.01534e-06
 Reference value :  4.01634e-06
 Reference value :  4.01850e-06
 Reference value :  4.02156e-06
 Reference value :  4.02782e-06
 Reference value :  4.03587e-06
 Reference value :  4.05188e-06
 Reference value :  4.05987e-06
 Reference value :  4.06708e-06
 Reference value :  4.07112e-06
 Reference value :  4.07563e-06
 Reference value :  4.07995e-06
 Reference value :  4.09468e-06
 Reference value :  4.12028e-06
 Reference value :  4.13374e-06
 Reference value :  4.14151e-06
 Reference value :  4.15050e-06
 Reference value :  4.15845e-06
 Reference value :  4.17460e-06
 Reference value :  4.19549e-06
 Reference value :  4.21591e-06
 Reference value :  4.25010e-06
 Reference value :  4.25013e-06
 Reference value :  4.25020e-06
 Reference value :  4.25022e-06
 Reference value :  4.25025e-06
 Reference value :  4.25032e-06
 Reference value :  4.25039e-06
 Reference value :  4.25054e-06
 Reference value :  4.25098e-06
 Reference value :  4.25146e-06
 Reference value :  4.25194e-06
 Reference value :  4.25312e-06
 Reference value :  4.25441e-06
 Reference value :  4.25568e-06
 Reference value :  4.25662e-06
 Reference value :  4.25940e-06
 Reference value :  4.26573e-06
 Reference value :  4.28792e-06
 Reference value :  4.37382e-06
 Reference value :  4.50000e-06
 Reference value :  4.50003e-06
 Reference value :  4.50010e-06
 Reference value :  4.50012e-06
 Reference value :  4.50022e-06
 Reference value :  4.50059e-06
 Reference value :  4.50093e-06
 Reference value :  4.50145e-06
 Reference value :  4.50243e-06
 Reference value :  4.50293e-06
 Reference value :  4.50347e-06
 Reference value :  4.50405e-06
 Reference value :  4.50560e-06
 Reference value :  4.50648e-06
 Reference value :  4.50743e-06
 Reference value :  4.50836e-06
 Reference value :  4.50928e-06
 Reference value :  4.51025e-06
 Reference value :  4.51137e-06
 Reference value :  4.51508e-06
 Reference value :  4.52558e-06
 Reference value :  4.55960e-06
 Reference value :  4.68939e-06
 Reference value :  4.75011e-06
 Reference value :  4.75017e-06
 Reference value :  4.75021e-06
 Reference value :  4.75026e-06
 Reference value :  4.75039e-06
 Reference value :  4.75074e-06
 Reference value :  4.75147e-06
 Reference value :  4.75194e-06
 Reference value :  4.75245e-06
 Reference value :  4.75311e-06
 Reference value :  4.75382e-06
 Reference value :  4.75440e-06
 Reference value :  4.75503e-06
 Reference value :  4.75566e-06
 Reference value :  4.75643e-06
 Reference value :  4.75808e-06
 Reference value :  4.76025e-06
 Reference value :  4.76405e-06
 Reference value :  4.77286e-06
 Reference value :  4.79469e-06
 Reference value :  4.85109e-06
 Reference value :  5.00000e-06
 Reference value :  5.00003e-06
 Reference value :  5.00010e-06
 Reference value :  5.00012e-06
 Reference value :  5.00022e-06
 Reference value :  5.00035e-06
 Reference value :  5.00059e-06
 Reference value :  5.00145e-06
 Reference value :  5.00196e-06
 Reference value :  5.00245e-06
 Reference value :  5.00297e-06
 Reference value :  5.00350e-06
 Reference value :  5.00410e-06
 Reference value :  5.00459e-06
 Reference value :  5.00583e-06
 Reference value :  5.00731e-06
 Reference value :  5.00816e-06
 Reference value :  5.01066e-06
 Reference value :  5.01175e-06
 Reference value :  5.01294e-06
 Reference value :  5.01378e-06
 Reference value :  5.01457e-06
 Reference value :  5.01553e-06
 Reference value :  5.01746e-06
 Reference value :  5.01870e-06
 Reference value :  5.01994e-06
 Reference value :  5.02436e-06
 Reference value :  5.02764e-06
 Reference value :  5.03423e-06
 Reference value :  5.03692e-06
 Reference value :  5.03942e-06
 Reference value :  5.04429e-06
 Reference value :  5.05079e-06
 Reference value :  5.06323e-06
 Reference value :  5.09097e-06
 Reference value :  5.12156e-06
 Reference value :  5.16949e-06
 Reference value :  5.22004e-06
 Reference value :  5.25010e-06
 Reference value :  5.25011e-06
 Reference value :  5.25013e-06
 Reference value :  5.25020e-06
 Reference value :  5.25022e-06
 Reference value :  5.25032e-06
 Reference value :  5.25054e-06
 Reference value :  5.25097e-06
 Reference value :  5.25193e-06
 Reference value :  5.25308e-06
 Reference value :  5.25431e-06
 Reference value :  5.25493e-06
 Reference value :  5.25632e-06
 Reference value :  5.25882e-06
 Reference value :  5.26425e-06
 Reference value :  5.28176e-06
 Reference value :  5.34110e-06
 Reference value :  5.49622e-06
 Reference value :  5.50001e-06
 Reference value :  5.50007e-06
 Reference value :  5.50011e-06
 Reference value :  5.50016e-06
 Reference value :  5.50022e-06
 Reference value :  5.50059e-06
 Reference value :  5.50093e-06
 Reference value :  5.50196e-06
 Reference value :  5.50243e-06
 Reference value :  5.50347e-06
 Reference value :  5.50405e-06
 Reference value :  5.50471e-06
 Reference value :  5.50560e-06
 Reference value :  5.50648e-06
 Reference value :  5.50743e-06
 Reference value :  5.50836e-06
 Reference value :  5.50928e-06
 Reference value :  5.51026e-06
 Reference value :  5.51137e-06
 Reference value :  5.51508e-06
 Reference value :  5.52553e-06
 Reference value :  5.55929e-06
 Reference value :  5.68799e-06
 Reference value :  5.75011e-06
 Reference value :  5.75017e-06
 Reference value :  5.75020e-06
 Reference value :  5.75022e-06
 Reference value :  5.75032e-06
 Reference value :  5.75054e-06
 Reference value :  5.75074e-06
 Reference value :  5.75147e-06
 Reference value :  5.75194e-06
 Reference value :  5.75311e-06
 Reference value :  5.75440e-06
 Reference value :  5.75567e-06
 Reference value :  5.75643e-06
 Reference value :  5.75808e-06
 Reference value :  5.76025e-06
 Reference value :  5.76405e-06
 Reference value :  5.76721e-06
 Reference value :  5.78091e-06
 Reference value :  5.81647e-06
 Reference value :  5.85133e-06
 Reference value :  6.00000e-06
 Reference value :  6.00003e-06
 Reference value :  6.00010e-06
 Reference value :  6.00012e-06
 Reference value :  6.00022e-06
 Reference value :  6.00035e-06
 Reference value :  6.00093e-06
 Reference value :  6.00145e-06
 Reference value :  6.00196e-06
 Reference value :  6.00245e-06
 Reference value :  6.00297e-06
 Reference value :  6.00350e-06
 Reference value :  6.00410e-06
 Reference value :  6.00459e-06
 Reference value :  6.00583e-06
 Reference value :  6.00731e-06
 Reference value :  6.00949e-06
 Reference value :  6.01037e-06
 Reference value :  6.01137e-06
 Reference value :  6.01239e-06
 Reference value :  6.01343e-06
 Reference value :  6.01440e-06
 Reference value :  6.01546e-06
 Reference value :  6.01762e-06
 Reference value :  6.01891e-06
 Reference value :  6.02222e-06
 Reference value :  6.02497e-06
 Reference value :  6.02670e-06
 Reference value :  6.03022e-06
 Reference value :  6.03557e-06
 Reference value :  6.04553e-06
 Reference value :  6.06840e-06
 Reference value :  6.12651e-06
 Reference value :  6.25010e-06
 Reference value :  6.25011e-06
 Reference value :  6.25017e-06
 Reference value :  6.25021e-06
 Reference value :  6.25025e-06
 Reference value :  6.25039e-06
 Reference value :  6.25071e-06
 Reference value :  6.25142e-06
 Reference value :  6.25192e-06
 Reference value :  6.25308e-06
 Reference value :  6.25380e-06
 Reference value :  6.25434e-06
 Reference value :  6.25496e-06
 Reference value :  6.25634e-06
 Reference value :  6.25883e-06
 Reference value :  6.26429e-06
 Reference value :  6.28154e-06
 Reference value :  6.34164e-06
 Reference value :  6.50000e-06
 Reference value :  6.50003e-06
 Reference value :  6.50010e-06
 Reference value :  6.50012e-06
 Reference value :  6.50022e-06
 Reference value :  6.50059e-06
 Reference value :  6.50093e-06
 Reference value :  6.50196e-06
 Reference value :  6.50245e-06
 Reference value :  6.50297e-06
 Reference value :  6.50350e-06
 Reference value :  6.50410e-06
 Reference value :  6.50489e-06
 Reference value :  6.50641e-06
 Reference value :  6.50731e-06
 Reference value :  6.50827e-06
 Reference value :  6.51019e-06
 Reference value :  6.51124e-06
 Reference value :  6.51898e-06
 Reference value :  6.54277e-06
 Reference value :  6.63403e-06
 Reference value :  6.75011e-06
 Reference value :  6.75017e-06
 Reference value :  6.75021e-06
 Reference value :  6.75025e-06
 Reference value :  6.75039e-06
 Reference value :  6.75074e-06
 Reference value :  6.75147e-06
 Reference value :  6.75194e-06
 Reference value :  6.75244e-06
 Reference value :  6.75382e-06
 Reference value :  6.75440e-06
 Reference value :  6.75566e-06
 Reference value :  6.75643e-06
 Reference value :  6.75888e-06
 Reference value :  6.76454e-06
 Reference value :  6.78293e-06
 Reference value :  6.85074e-06
 Reference value :  7.00000e-06
 Reference value :  7.00003e-06
 Reference value :  7.00010e-06
 Reference value :  7.00012e-06
 Reference value :  7.00022e-06
 Reference value :  7.00059e-06
 Reference value :  7.00145e-06
 Reference value :  7.00245e-06
 Reference value :  7.00349e-06
 Reference value :  7.00410e-06
 Reference value :  7.00466e-06
 Reference value :  7.00588e-06
 Reference value :  7.00739e-06
 Reference value :  7.01046e-06
 Reference value :  7.01186e-06
 Reference value :  7.01336e-06
 Reference value :  7.01441e-06
 Reference value :  7.01634e-06
 Reference value :  7.01878e-06
 Reference value :  7.02210e-06
 Reference value :  7.02415e-06
 Reference value :  7.02924e-06
 Reference value :  7.03867e-06
 Reference value :  7.04228e-06
 Reference value :  7.05240e-06
 Reference value :  7.06797e-06
 Reference value :  7.09754e-06
 Reference value :  7.13943e-06
 Reference value :  7.25010e-06
 Reference value :  7.25013e-06
 Reference value :  7.25020e-06
 Reference value :  7.25022e-06
 Reference value :  7.25032e-06
 Reference value :  7.25054e-06
 Reference value :  7.25097e-06
 Reference value :  7.25193e-06
 Reference value :  7.25308e-06
 Reference value :  7.25432e-06
 Reference value :  7.25553e-06
 Reference value :  7.25636e-06
 Reference value :  7.25889e-06
 Reference value :  7.26441e-06
 Reference value :  7.30228e-06
 Reference value :  7.42268e-06
 Reference value :  7.50001e-06
 Reference value :  7.50007e-06
 Reference value :  7.50011e-06
 Reference value :  7.50016e-06
 Reference value :  7.50035e-06
 Reference value :  7.50093e-06
 Reference value :  7.50196e-06
 Reference value :  7.50243e-06
 Reference value :  7.50347e-06
 Reference value :  7.50471e-06
 Reference value :  7.50560e-06
 Reference value :  7.50648e-06
 Reference value :  7.50836e-06
 Reference value :  7.50929e-06
 Reference value :  7.51138e-06
 Reference value :  7.51509e-06
 Reference value :  7.52547e-06
 Reference value :  7.55880e-06
 Reference value :  7.75010e-06
 Reference value :  7.75013e-06
 Reference value :  7.75020e-06
 Reference value :  7.75022e-06
 Reference value :  7.75026e-06
 Reference value :  7.75039e-06
 Reference value :  7.75074e-06
 Reference value :  7.75147e-06
 Reference value :  7.75245e-06
 Reference value :  7.75382e-06
 Reference value :  7.75440e-06
 Reference value :  7.75503e-06
 Reference value :  7.75644e-06
 Reference value :  7.75808e-06
 Reference value :  7.76026e-06
 Reference value :  7.76406e-06
 Reference value :  7.78097e-06
 Reference value :  7.81670e-06
 Reference value :  7.92184e-06
 Reference value :  8.00001e-06
 Reference value :  8.00003e-06
 Reference value :  8.00010e-06
 Reference value :  8.00012e-06
 Reference value :  8.00022e-06
 Reference value :  8.00059e-06
 Reference value :  8.00093e-06
 Reference value :  8.00196e-06
 Reference value :  8.00245e-06
 Reference value :  8.00350e-06
 Reference value :  8.00410e-06
 Reference value :  8.00459e-06
 Reference value :  8.00583e-06
 Reference value :  8.00731e-06
 Reference value :  8.00898e-06
 Reference value :  8.00969e-06
 Reference value :  8.01137e-06
 Reference value :  8.01404e-06
 Reference value :  8.01576e-06
 Reference value :  8.01776e-06
 Reference value :  8.01910e-06
 Reference value :  8.02230e-06
 Reference value :  8.02421e-06
 Reference value :  8.03003e-06
 Reference value :  8.04227e-06
 Reference value :  8.07214e-06
 Reference value :  8.10655e-06
 Reference value :  8.25010e-06
 Reference value :  8.25011e-06
 Reference value :  8.25013e-06
 Reference value :  8.25020e-06
 Reference value :  8.25022e-06
 Reference value :  8.25032e-06
 Reference value :  8.25060e-06
 Reference value :  8.25119e-06
 Reference value :  8.25161e-06
 Reference value :  8.25257e-06
 Reference value :  8.25330e-06
 Reference value :  8.25406e-06
 Reference value :  8.25504e-06
 Reference value :  8.25597e-06
 Reference value :  8.25856e-06
 Reference value :  8.26322e-06
 Reference value :  8.27780e-06
 Reference value :  8.33469e-06
 Reference value :  8.50000e-06
 Reference value :  8.50003e-06
 Reference value :  8.50010e-06
 Reference value :  8.50012e-06
 Reference value :  8.50022e-06
 Reference value :  8.50060e-06
 Reference value :  8.50094e-06
 Reference value :  8.50143e-06
 Reference value :  8.50195e-06
 Reference value :  8.50244e-06
 Reference value :  8.50357e-06
 Reference value :  8.50424e-06
 Reference value :  8.50489e-06
 Reference value :  8.50563e-06
 Reference value :  8.50714e-06
 Reference value :  8.50849e-06
 Reference value :  8.51378e-06
 Reference value :  8.51987e-06
 Reference value :  8.52615e-06
 Reference value :  8.53073e-06
 Reference value :  8.53516e-06
 Reference value :  8.53818e-06
 Reference value :  8.54142e-06
 Reference value :  8.54822e-06
 Reference value :  8.55888e-06
 Reference value :  8.57900e-06
 Reference value :  8.62078e-06
 Reference value :  8.68663e-06
 Reference value :  8.75010e-06
 Reference value :  8.75013e-06
 Reference value :  8.75020e-06
 Reference value :  8.75022e-06
 Reference value :  8.75032e-06
 Reference value :  8.75060e-06
 Reference value :  8.75127e-06
 Reference value :  8.75171e-06
 Reference value :  8.75216e-06
 Reference value :  8.75273e-06
 Reference value :  8.75350e-06
 Reference value :  8.75401e-06
 Reference value :  8.75460e-06
 Reference value :  8.75596e-06
 Reference value :  8.75827e-06
 Reference value :  8.76304e-06
 Reference value :  8.77597e-06
 Reference value :  8.82482e-06
 Reference value :  9.00000e-06
No. of Data Rows : 1347
ngspice-44 done
