
Note: Compatibility modes selected: hs a


Circuit: ** sch_path: /home/ece/cace/sar-adc-using-sky130-pdk/runs/run_2025-10-12_02-56-23/parameters/dnl/run_0/sar_output_dnl.sch

option SCALE: Scale is set to 1e-06 for instance and model parameters
option SCALE: Scale is set to 1e-06 for instance and model parameters
option SCALE: Scale is set to 1e-06 for instance and model parameters
option SCALE: Scale is set to 1e-06 for instance and model parameters
Doing analysis at TEMP = -40.000000 and TNOM = 27.000000

Using KLU as Direct Linear Solver
Operating point simulation skipped by 'uic',
  now using transient initial conditions.
 Reference value :  1.00000e-12
 Reference value :  1.02772e-12
 Reference value :  1.08316e-12
 Reference value :  1.19404e-12
 Reference value :  1.33848e-12
 Reference value :  1.62736e-12
 Reference value :  2.20511e-12
 Reference value :  3.05251e-12
 Reference value :  3.95857e-12
 Reference value :  5.17554e-12
 Reference value :  6.90486e-12
 Reference value :  1.00809e-11
 Reference value :  1.36082e-11
 Reference value :  2.05147e-11
 Reference value :  2.72348e-11
 Reference value :  3.63317e-11
 Reference value :  4.75050e-11
 Reference value :  6.34246e-11
 Reference value :  8.32718e-11
 Reference value :  1.00000e-10
 Reference value :  1.01387e-10
 Reference value :  1.04162e-10
 Reference value :  1.09712e-10
 Reference value :  1.20812e-10
 Reference value :  1.43012e-10
 Reference value :  1.87412e-10
 Reference value :  2.76211e-10
 Reference value :  4.27742e-10
 Reference value :  6.03952e-10
 Reference value :  8.82078e-10
 Reference value :  1.26643e-09
 Reference value :  1.65679e-09
 Reference value :  2.24858e-09
 Reference value :  2.86827e-09
 Reference value :  3.76359e-09
 Reference value :  4.60366e-09
 Reference value :  5.32229e-09
 Reference value :  6.20689e-09
 Reference value :  7.22466e-09
 Reference value :  8.29480e-09
 Reference value :  9.52140e-09
 Reference value :  1.10095e-08
 Reference value :  1.25510e-08
 Reference value :  1.52010e-08
 Reference value :  2.04138e-08
 Reference value :  2.55215e-08
 Reference value :  3.04257e-08
 Reference value :  3.42220e-08
 Reference value :  3.82783e-08
 Reference value :  4.30988e-08
 Reference value :  4.63228e-08
 Reference value :  4.98472e-08
 Reference value :  5.52200e-08
 Reference value :  6.14359e-08
 Reference value :  7.35134e-08
 Reference value :  9.26791e-08
 Reference value :  1.27483e-07
 Reference value :  1.91744e-07
 Reference value :  2.50100e-07
 Reference value :  2.50110e-07
 Reference value :  2.50130e-07
 Reference value :  2.50170e-07
 Reference value :  2.50200e-07
 Reference value :  2.50201e-07
 Reference value :  2.50202e-07
 Reference value :  2.50204e-07
 Reference value :  2.50209e-07
 Reference value :  2.50218e-07
 Reference value :  2.50236e-07
 Reference value :  2.50272e-07
 Reference value :  2.50345e-07
 Reference value :  2.50447e-07
 Reference value :  2.50593e-07
 Reference value :  2.50778e-07
 Reference value :  2.51120e-07
 Reference value :  2.51483e-07
 Reference value :  2.51986e-07
 Reference value :  2.52508e-07
 Reference value :  2.53160e-07
 Reference value :  2.53977e-07
 Reference value :  2.54663e-07
 Reference value :  2.55434e-07
 Reference value :  2.56134e-07
 Reference value :  2.56943e-07
 Reference value :  2.57722e-07
 Reference value :  2.58998e-07
 Reference value :  2.60913e-07
 Reference value :  2.62713e-07
 Reference value :  2.66018e-07
 Reference value :  2.70084e-07
 Reference value :  2.78217e-07
 Reference value :  2.94483e-07
 Reference value :  3.26141e-07
 Reference value :  3.89456e-07
 Reference value :  5.00000e-07
 Reference value :  5.00010e-07
 Reference value :  5.00030e-07
 Reference value :  5.00070e-07
 Reference value :  5.00100e-07
 Reference value :  5.00104e-07
 Reference value :  5.00113e-07
 Reference value :  5.00130e-07
 Reference value :  5.00165e-07
 Reference value :  5.00235e-07
 Reference value :  5.00364e-07
 Reference value :  5.00578e-07
 Reference value :  5.01005e-07
 Reference value :  5.01505e-07
 Reference value :  5.02036e-07
 Reference value :  5.02521e-07
 Reference value :  5.03090e-07
 Reference value :  5.03710e-07
 Reference value :  5.04475e-07
 Reference value :  5.05266e-07
 Reference value :  5.06059e-07
 Reference value :  5.07285e-07
 Reference value :  5.08435e-07
 Reference value :  5.10198e-07
 Reference value :  5.12308e-07
 Reference value :  5.13855e-07
 Reference value :  5.15569e-07
 Reference value :  5.17393e-07
 Reference value :  5.19567e-07
 Reference value :  5.21776e-07
 Reference value :  5.24131e-07
 Reference value :  5.28480e-07
 Reference value :  5.34578e-07
 Reference value :  5.42840e-07
 Reference value :  5.59365e-07
 Reference value :  5.83256e-07
 Reference value :  6.25671e-07
 Reference value :  7.10500e-07
 Reference value :  7.50100e-07
 Reference value :  7.50110e-07
 Reference value :  7.50130e-07
 Reference value :  7.50170e-07
 Reference value :  7.50200e-07
 Reference value :  7.50201e-07
 Reference value :  7.50202e-07
 Reference value :  7.50206e-07
 Reference value :  7.50212e-07
 Reference value :  7.50225e-07
 Reference value :  7.50251e-07
 Reference value :  7.50303e-07
 Reference value :  7.50407e-07
 Reference value :  7.50615e-07
 Reference value :  7.50972e-07
 Reference value :  7.51347e-07
 Reference value :  7.51825e-07
 Reference value :  7.52356e-07
 Reference value :  7.53081e-07
 Reference value :  7.53919e-07
 Reference value :  7.54680e-07
 Reference value :  7.55563e-07
 Reference value :  7.56329e-07
 Reference value :  7.57134e-07
 Reference value :  7.58019e-07
 Reference value :  7.59018e-07
 Reference value :  7.60060e-07
 Reference value :  7.61394e-07
 Reference value :  7.63079e-07
 Reference value :  7.65168e-07
 Reference value :  7.67931e-07
 Reference value :  7.71837e-07
 Reference value :  7.79649e-07
 Reference value :  7.91728e-07
 Reference value :  8.14522e-07
 Reference value :  8.60111e-07
 Reference value :  9.51289e-07
 Reference value :  1.00000e-06
 Reference value :  1.00001e-06
 Reference value :  1.00003e-06
 Reference value :  1.00007e-06
 Reference value :  1.00010e-06
 Reference value :  1.00010e-06
 Reference value :  1.00011e-06
 Reference value :  1.00013e-06
 Reference value :  1.00017e-06
 Reference value :  1.00023e-06
 Reference value :  1.00036e-06
 Reference value :  1.00058e-06
 Reference value :  1.00100e-06
 Reference value :  1.00150e-06
 Reference value :  1.00203e-06
 Reference value :  1.00254e-06
 Reference value :  1.00314e-06
 Reference value :  1.00371e-06
 Reference value :  1.00450e-06
 Reference value :  1.00523e-06
 Reference value :  1.00594e-06
 Reference value :  1.00680e-06
 Reference value :  1.00769e-06
 Reference value :  1.00851e-06
 Reference value :  1.00939e-06
 Reference value :  1.01049e-06
 Reference value :  1.01198e-06
 Reference value :  1.01394e-06
 Reference value :  1.01528e-06
 Reference value :  1.01678e-06
 Reference value :  1.01821e-06
 Reference value :  1.01962e-06
 Reference value :  1.02066e-06
 Reference value :  1.02178e-06
 Reference value :  1.02314e-06
 Reference value :  1.02463e-06
 Reference value :  1.02612e-06
 Reference value :  1.02847e-06
 Reference value :  1.03093e-06
 Reference value :  1.03586e-06
 Reference value :  1.04338e-06
 Reference value :  1.05558e-06
 Reference value :  1.07768e-06
 Reference value :  1.11851e-06
 Reference value :  1.18349e-06
 Reference value :  1.25010e-06
 Reference value :  1.25011e-06
 Reference value :  1.25013e-06
 Reference value :  1.25017e-06
 Reference value :  1.25020e-06
 Reference value :  1.25020e-06
 Reference value :  1.25020e-06
 Reference value :  1.25021e-06
 Reference value :  1.25021e-06
 Reference value :  1.25023e-06
 Reference value :  1.25025e-06
 Reference value :  1.25031e-06
 Reference value :  1.25041e-06
 Reference value :  1.25062e-06
 Reference value :  1.25098e-06
 Reference value :  1.25135e-06
 Reference value :  1.25182e-06
 Reference value :  1.25236e-06
 Reference value :  1.25304e-06
 Reference value :  1.25389e-06
 Reference value :  1.25466e-06
 Reference value :  1.25551e-06
 Reference value :  1.25641e-06
 Reference value :  1.25724e-06
 Reference value :  1.25874e-06
 Reference value :  1.26008e-06
 Reference value :  1.26221e-06
 Reference value :  1.26502e-06
 Reference value :  1.26960e-06
 Reference value :  1.27875e-06
 Reference value :  1.29291e-06
 Reference value :  1.32023e-06
 Reference value :  1.36747e-06
 Reference value :  1.43074e-06
 Reference value :  1.50000e-06
 Reference value :  1.50001e-06
 Reference value :  1.50003e-06
 Reference value :  1.50007e-06
 Reference value :  1.50010e-06
 Reference value :  1.50010e-06
 Reference value :  1.50011e-06
 Reference value :  1.50013e-06
 Reference value :  1.50016e-06
 Reference value :  1.50023e-06
 Reference value :  1.50036e-06
 Reference value :  1.50056e-06
 Reference value :  1.50096e-06
 Reference value :  1.50146e-06
 Reference value :  1.50198e-06
 Reference value :  1.50245e-06
 Reference value :  1.50303e-06
 Reference value :  1.50356e-06
 Reference value :  1.50423e-06
 Reference value :  1.50495e-06
 Reference value :  1.50577e-06
 Reference value :  1.50682e-06
 Reference value :  1.50790e-06
 Reference value :  1.50936e-06
 Reference value :  1.51039e-06
 Reference value :  1.51155e-06
 Reference value :  1.51276e-06
 Reference value :  1.51424e-06
 Reference value :  1.51573e-06
 Reference value :  1.51740e-06
 Reference value :  1.52069e-06
 Reference value :  1.52520e-06
 Reference value :  1.53416e-06
 Reference value :  1.55087e-06
 Reference value :  1.58081e-06
 Reference value :  1.64068e-06
 Reference value :  1.75010e-06
 Reference value :  1.75011e-06
 Reference value :  1.75013e-06
 Reference value :  1.75017e-06
 Reference value :  1.75020e-06
 Reference value :  1.75020e-06
 Reference value :  1.75020e-06
 Reference value :  1.75021e-06
 Reference value :  1.75021e-06
 Reference value :  1.75023e-06
 Reference value :  1.75025e-06
 Reference value :  1.75030e-06
 Reference value :  1.75041e-06
 Reference value :  1.75062e-06
 Reference value :  1.75097e-06
 Reference value :  1.75134e-06
 Reference value :  1.75181e-06
 Reference value :  1.75234e-06
 Reference value :  1.75304e-06
 Reference value :  1.75386e-06
 Reference value :  1.75464e-06
 Reference value :  1.75553e-06
 Reference value :  1.75638e-06
 Reference value :  1.75717e-06
 Reference value :  1.75808e-06
 Reference value :  1.75910e-06
 Reference value :  1.76036e-06
 Reference value :  1.76156e-06
 Reference value :  1.76343e-06
 Reference value :  1.76550e-06
 Reference value :  1.76868e-06
 Reference value :  1.77335e-06
 Reference value :  1.78270e-06
 Reference value :  1.80139e-06
 Reference value :  1.83730e-06
 Reference value :  1.90910e-06
 Reference value :  2.00000e-06
 Reference value :  2.00001e-06
 Reference value :  2.00003e-06
 Reference value :  2.00007e-06
 Reference value :  2.00010e-06
 Reference value :  2.00010e-06
 Reference value :  2.00011e-06
 Reference value :  2.00013e-06
 Reference value :  2.00016e-06
 Reference value :  2.00023e-06
 Reference value :  2.00036e-06
 Reference value :  2.00056e-06
 Reference value :  2.00096e-06
 Reference value :  2.00145e-06
 Reference value :  2.00198e-06
 Reference value :  2.00248e-06
 Reference value :  2.00302e-06
 Reference value :  2.00358e-06
 Reference value :  2.00432e-06
 Reference value :  2.00499e-06
 Reference value :  2.00563e-06
 Reference value :  2.00631e-06
 Reference value :  2.00699e-06
 Reference value :  2.00773e-06
 Reference value :  2.00846e-06
 Reference value :  2.00931e-06
 Reference value :  2.01033e-06
 Reference value :  2.01182e-06
 Reference value :  2.01401e-06
 Reference value :  2.01544e-06
 Reference value :  2.01704e-06
 Reference value :  2.01854e-06
 Reference value :  2.01970e-06
 Reference value :  2.02080e-06
 Reference value :  2.02197e-06
 Reference value :  2.02320e-06
 Reference value :  2.02465e-06
 Reference value :  2.02602e-06
 Reference value :  2.02842e-06
 Reference value :  2.03061e-06
 Reference value :  2.03499e-06
 Reference value :  2.04268e-06
 Reference value :  2.05444e-06
 Reference value :  2.07492e-06
 Reference value :  2.10478e-06
 Reference value :  2.15252e-06
 Reference value :  2.23823e-06
 Reference value :  2.25010e-06
 Reference value :  2.25011e-06
 Reference value :  2.25013e-06
 Reference value :  2.25017e-06
 Reference value :  2.25020e-06
 Reference value :  2.25020e-06
 Reference value :  2.25020e-06
 Reference value :  2.25021e-06
 Reference value :  2.25021e-06
 Reference value :  2.25023e-06
 Reference value :  2.25025e-06
 Reference value :  2.25031e-06
 Reference value :  2.25041e-06
 Reference value :  2.25062e-06
 Reference value :  2.25098e-06
 Reference value :  2.25135e-06
 Reference value :  2.25182e-06
 Reference value :  2.25236e-06
 Reference value :  2.25305e-06
 Reference value :  2.25388e-06
 Reference value :  2.25464e-06
 Reference value :  2.25549e-06
 Reference value :  2.25637e-06
 Reference value :  2.25720e-06
 Reference value :  2.25850e-06
 Reference value :  2.25984e-06
 Reference value :  2.26188e-06
 Reference value :  2.26465e-06
 Reference value :  2.26868e-06
 Reference value :  2.27675e-06
 Reference value :  2.29034e-06
 Reference value :  2.31492e-06
 Reference value :  2.36014e-06
 Reference value :  2.42215e-06
 Reference value :  2.48498e-06
 Reference value :  2.50000e-06
 Reference value :  2.50001e-06
 Reference value :  2.50003e-06
 Reference value :  2.50007e-06
 Reference value :  2.50010e-06
 Reference value :  2.50010e-06
 Reference value :  2.50011e-06
 Reference value :  2.50013e-06
 Reference value :  2.50017e-06
 Reference value :  2.50023e-06
 Reference value :  2.50036e-06
 Reference value :  2.50056e-06
 Reference value :  2.50096e-06
 Reference value :  2.50146e-06
 Reference value :  2.50199e-06
 Reference value :  2.50246e-06
 Reference value :  2.50303e-06
 Reference value :  2.50357e-06
 Reference value :  2.50424e-06
 Reference value :  2.50496e-06
 Reference value :  2.50577e-06
 Reference value :  2.50683e-06
 Reference value :  2.50791e-06
 Reference value :  2.50935e-06
 Reference value :  2.51038e-06
 Reference value :  2.51152e-06
 Reference value :  2.51269e-06
 Reference value :  2.51409e-06
 Reference value :  2.51561e-06
 Reference value :  2.51716e-06
 Reference value :  2.52026e-06
 Reference value :  2.52541e-06
 Reference value :  2.53488e-06
 Reference value :  2.55329e-06
 Reference value :  2.58701e-06
 Reference value :  2.65443e-06
 Reference value :  2.75010e-06
 Reference value :  2.75011e-06
 Reference value :  2.75013e-06
 Reference value :  2.75017e-06
 Reference value :  2.75020e-06
 Reference value :  2.75020e-06
 Reference value :  2.75020e-06
 Reference value :  2.75021e-06
 Reference value :  2.75021e-06
 Reference value :  2.75023e-06
 Reference value :  2.75025e-06
 Reference value :  2.75030e-06
 Reference value :  2.75041e-06
 Reference value :  2.75062e-06
 Reference value :  2.75097e-06
 Reference value :  2.75134e-06
 Reference value :  2.75181e-06
 Reference value :  2.75234e-06
 Reference value :  2.75304e-06
 Reference value :  2.75386e-06
 Reference value :  2.75464e-06
 Reference value :  2.75552e-06
 Reference value :  2.75637e-06
 Reference value :  2.75716e-06
 Reference value :  2.75808e-06
 Reference value :  2.75910e-06
 Reference value :  2.76036e-06
 Reference value :  2.76157e-06
 Reference value :  2.76344e-06
 Reference value :  2.76551e-06
 Reference value :  2.76868e-06
 Reference value :  2.77338e-06
 Reference value :  2.78277e-06
 Reference value :  2.80156e-06
 Reference value :  2.83767e-06
 Reference value :  2.90988e-06
 Reference value :  3.00000e-06
 Reference value :  3.00001e-06
 Reference value :  3.00003e-06
 Reference value :  3.00007e-06
 Reference value :  3.00010e-06
 Reference value :  3.00010e-06
 Reference value :  3.00011e-06
 Reference value :  3.00013e-06
 Reference value :  3.00016e-06
 Reference value :  3.00023e-06
 Reference value :  3.00036e-06
 Reference value :  3.00056e-06
 Reference value :  3.00096e-06
 Reference value :  3.00145e-06
 Reference value :  3.00198e-06
 Reference value :  3.00248e-06
 Reference value :  3.00302e-06
 Reference value :  3.00358e-06
 Reference value :  3.00432e-06
 Reference value :  3.00499e-06
 Reference value :  3.00564e-06
 Reference value :  3.00631e-06
 Reference value :  3.00700e-06
 Reference value :  3.00774e-06
 Reference value :  3.00844e-06
 Reference value :  3.00933e-06
 Reference value :  3.01032e-06
 Reference value :  3.01187e-06
 Reference value :  3.01337e-06
 Reference value :  3.01496e-06
 Reference value :  3.01646e-06
 Reference value :  3.01792e-06
 Reference value :  3.01901e-06
 Reference value :  3.02004e-06
 Reference value :  3.02121e-06
 Reference value :  3.02227e-06
 Reference value :  3.02337e-06
 Reference value :  3.02465e-06
 Reference value :  3.02636e-06
 Reference value :  3.02823e-06
 Reference value :  3.03140e-06
 Reference value :  3.03670e-06
 Reference value :  3.04484e-06
 Reference value :  3.05949e-06
 Reference value :  3.08340e-06
 Reference value :  3.12031e-06
 Reference value :  3.15142e-06
 Reference value :  3.18825e-06
 Reference value :  3.21796e-06
 Reference value :  3.24944e-06
 Reference value :  3.25010e-06
 Reference value :  3.25011e-06
 Reference value :  3.25013e-06
 Reference value :  3.25017e-06
 Reference value :  3.25020e-06
 Reference value :  3.25020e-06
 Reference value :  3.25020e-06
 Reference value :  3.25021e-06
 Reference value :  3.25021e-06
 Reference value :  3.25023e-06
 Reference value :  3.25025e-06
 Reference value :  3.25030e-06
 Reference value :  3.25041e-06
 Reference value :  3.25062e-06
 Reference value :  3.25097e-06
 Reference value :  3.25134e-06
 Reference value :  3.25181e-06
 Reference value :  3.25234e-06
 Reference value :  3.25304e-06
 Reference value :  3.25386e-06
 Reference value :  3.25464e-06
 Reference value :  3.25550e-06
 Reference value :  3.25636e-06
 Reference value :  3.25721e-06
 Reference value :  3.25867e-06
 Reference value :  3.26000e-06
 Reference value :  3.26213e-06
 Reference value :  3.26490e-06
 Reference value :  3.26931e-06
 Reference value :  3.27814e-06
 Reference value :  3.29206e-06
 Reference value :  3.31856e-06
 Reference value :  3.36503e-06
 Reference value :  3.44759e-06
 Reference value :  3.50000e-06
 Reference value :  3.50001e-06
 Reference value :  3.50003e-06
 Reference value :  3.50007e-06
 Reference value :  3.50010e-06
 Reference value :  3.50010e-06
 Reference value :  3.50011e-06
 Reference value :  3.50013e-06
 Reference value :  3.50016e-06
 Reference value :  3.50023e-06
 Reference value :  3.50036e-06
 Reference value :  3.50056e-06
 Reference value :  3.50096e-06
 Reference value :  3.50145e-06
 Reference value :  3.50198e-06
 Reference value :  3.50245e-06
 Reference value :  3.50303e-06
 Reference value :  3.50356e-06
 Reference value :  3.50423e-06
 Reference value :  3.50495e-06
 Reference value :  3.50570e-06
 Reference value :  3.50678e-06
 Reference value :  3.50778e-06
 Reference value :  3.50927e-06
 Reference value :  3.51027e-06
 Reference value :  3.51142e-06
 Reference value :  3.51246e-06
 Reference value :  3.51370e-06
 Reference value :  3.51497e-06
 Reference value :  3.51639e-06
 Reference value :  3.51921e-06
 Reference value :  3.52471e-06
 Reference value :  3.53410e-06
 Reference value :  3.55289e-06
 Reference value :  3.59046e-06
 Reference value :  3.66561e-06
 Reference value :  3.75010e-06
 Reference value :  3.75011e-06
 Reference value :  3.75013e-06
 Reference value :  3.75017e-06
 Reference value :  3.75020e-06
 Reference value :  3.75020e-06
 Reference value :  3.75020e-06
 Reference value :  3.75021e-06
 Reference value :  3.75021e-06
 Reference value :  3.75023e-06
 Reference value :  3.75025e-06
 Reference value :  3.75030e-06
 Reference value :  3.75041e-06
 Reference value :  3.75062e-06
 Reference value :  3.75097e-06
 Reference value :  3.75134e-06
 Reference value :  3.75181e-06
 Reference value :  3.75234e-06
 Reference value :  3.75304e-06
 Reference value :  3.75386e-06
 Reference value :  3.75464e-06
 Reference value :  3.75552e-06
 Reference value :  3.75637e-06
 Reference value :  3.75716e-06
 Reference value :  3.75808e-06
 Reference value :  3.75909e-06
 Reference value :  3.76035e-06
 Reference value :  3.76155e-06
 Reference value :  3.76342e-06
 Reference value :  3.76549e-06
 Reference value :  3.76866e-06
 Reference value :  3.77333e-06
 Reference value :  3.78266e-06
 Reference value :  3.80133e-06
 Reference value :  3.83715e-06
 Reference value :  3.90880e-06
 Reference value :  4.00000e-06
 Reference value :  4.00001e-06
 Reference value :  4.00003e-06
 Reference value :  4.00007e-06
 Reference value :  4.00010e-06
 Reference value :  4.00010e-06
 Reference value :  4.00011e-06
 Reference value :  4.00013e-06
 Reference value :  4.00016e-06
 Reference value :  4.00023e-06
 Reference value :  4.00036e-06
 Reference value :  4.00056e-06
 Reference value :  4.00096e-06
 Reference value :  4.00145e-06
 Reference value :  4.00198e-06
 Reference value :  4.00248e-06
 Reference value :  4.00302e-06
 Reference value :  4.00358e-06
 Reference value :  4.00432e-06
 Reference value :  4.00499e-06
 Reference value :  4.00563e-06
 Reference value :  4.00631e-06
 Reference value :  4.00700e-06
 Reference value :  4.00774e-06
 Reference value :  4.00842e-06
 Reference value :  4.00937e-06
 Reference value :  4.01033e-06
 Reference value :  4.01196e-06
 Reference value :  4.01299e-06
 Reference value :  4.01422e-06
 Reference value :  4.01539e-06
 Reference value :  4.01681e-06
 Reference value :  4.01832e-06
 Reference value :  4.01948e-06
 Reference value :  4.02071e-06
 Reference value :  4.02194e-06
 Reference value :  4.02325e-06
 Reference value :  4.02474e-06
 Reference value :  4.02630e-06
 Reference value :  4.02856e-06
 Reference value :  4.03145e-06
 Reference value :  4.03722e-06
 Reference value :  4.04802e-06
 Reference value :  4.06276e-06
 Reference value :  4.07779e-06
 Reference value :  4.09287e-06
 Reference value :  4.10822e-06
 Reference value :  4.12466e-06
 Reference value :  4.14133e-06
 Reference value :  4.16276e-06
 Reference value :  4.18543e-06
 Reference value :  4.20834e-06
 Reference value :  4.23752e-06
 Reference value :  4.25010e-06
 Reference value :  4.25011e-06
 Reference value :  4.25013e-06
 Reference value :  4.25017e-06
 Reference value :  4.25020e-06
 Reference value :  4.25020e-06
 Reference value :  4.25020e-06
 Reference value :  4.25021e-06
 Reference value :  4.25021e-06
 Reference value :  4.25023e-06
 Reference value :  4.25025e-06
 Reference value :  4.25030e-06
 Reference value :  4.25041e-06
 Reference value :  4.25062e-06
 Reference value :  4.25098e-06
 Reference value :  4.25135e-06
 Reference value :  4.25182e-06
 Reference value :  4.25236e-06
 Reference value :  4.25305e-06
 Reference value :  4.25388e-06
 Reference value :  4.25463e-06
 Reference value :  4.25549e-06
 Reference value :  4.25637e-06
 Reference value :  4.25719e-06
 Reference value :  4.25849e-06
 Reference value :  4.25982e-06
 Reference value :  4.26187e-06
 Reference value :  4.26464e-06
 Reference value :  4.26860e-06
 Reference value :  4.27650e-06
 Reference value :  4.28995e-06
 Reference value :  4.31397e-06
 Reference value :  4.35853e-06
 Reference value :  4.44766e-06
 Reference value :  4.50000e-06
 Reference value :  4.50001e-06
 Reference value :  4.50003e-06
 Reference value :  4.50007e-06
 Reference value :  4.50010e-06
 Reference value :  4.50010e-06
 Reference value :  4.50011e-06
 Reference value :  4.50013e-06
 Reference value :  4.50016e-06
 Reference value :  4.50023e-06
 Reference value :  4.50036e-06
 Reference value :  4.50056e-06
 Reference value :  4.50096e-06
 Reference value :  4.50145e-06
 Reference value :  4.50198e-06
 Reference value :  4.50245e-06
 Reference value :  4.50302e-06
 Reference value :  4.50356e-06
 Reference value :  4.50423e-06
 Reference value :  4.50494e-06
 Reference value :  4.50570e-06
 Reference value :  4.50678e-06
 Reference value :  4.50778e-06
 Reference value :  4.50916e-06
 Reference value :  4.51014e-06
 Reference value :  4.51124e-06
 Reference value :  4.51220e-06
 Reference value :  4.51336e-06
 Reference value :  4.51451e-06
 Reference value :  4.51587e-06
 Reference value :  4.51857e-06
 Reference value :  4.52396e-06
 Reference value :  4.53349e-06
 Reference value :  4.55256e-06
 Reference value :  4.59071e-06
 Reference value :  4.66699e-06
 Reference value :  4.75010e-06
 Reference value :  4.75011e-06
 Reference value :  4.75013e-06
 Reference value :  4.75017e-06
 Reference value :  4.75020e-06
 Reference value :  4.75020e-06
 Reference value :  4.75020e-06
 Reference value :  4.75021e-06
 Reference value :  4.75021e-06
 Reference value :  4.75023e-06
 Reference value :  4.75025e-06
 Reference value :  4.75030e-06
 Reference value :  4.75041e-06
 Reference value :  4.75062e-06
 Reference value :  4.75097e-06
 Reference value :  4.75134e-06
 Reference value :  4.75181e-06
 Reference value :  4.75234e-06
 Reference value :  4.75304e-06
 Reference value :  4.75386e-06
 Reference value :  4.75463e-06
 Reference value :  4.75551e-06
 Reference value :  4.75636e-06
 Reference value :  4.75715e-06
 Reference value :  4.75806e-06
 Reference value :  4.75908e-06
 Reference value :  4.76032e-06
 Reference value :  4.76153e-06
 Reference value :  4.76339e-06
 Reference value :  4.76546e-06
 Reference value :  4.76861e-06
 Reference value :  4.77323e-06
 Reference value :  4.78247e-06
 Reference value :  4.80094e-06
 Reference value :  4.83626e-06
 Reference value :  4.90690e-06
 Reference value :  5.00000e-06
 Reference value :  5.00001e-06
 Reference value :  5.00003e-06
 Reference value :  5.00007e-06
 Reference value :  5.00010e-06
 Reference value :  5.00010e-06
 Reference value :  5.00011e-06
 Reference value :  5.00013e-06
 Reference value :  5.00016e-06
 Reference value :  5.00023e-06
 Reference value :  5.00036e-06
 Reference value :  5.00056e-06
 Reference value :  5.00096e-06
 Reference value :  5.00145e-06
 Reference value :  5.00198e-06
 Reference value :  5.00247e-06
 Reference value :  5.00302e-06
 Reference value :  5.00358e-06
 Reference value :  5.00432e-06
 Reference value :  5.00499e-06
 Reference value :  5.00564e-06
 Reference value :  5.00632e-06
 Reference value :  5.00701e-06
 Reference value :  5.00768e-06
 Reference value :  5.00838e-06
 Reference value :  5.00931e-06
 Reference value :  5.01026e-06
 Reference value :  5.01192e-06
 Reference value :  5.01301e-06
 Reference value :  5.01423e-06
 Reference value :  5.01549e-06
 Reference value :  5.01690e-06
 Reference value :  5.01846e-06
 Reference value :  5.01965e-06
 Reference value :  5.02092e-06
 Reference value :  5.02207e-06
 Reference value :  5.02337e-06
 Reference value :  5.02492e-06
 Reference value :  5.02645e-06
 Reference value :  5.02878e-06
 Reference value :  5.03190e-06
 Reference value :  5.03813e-06
 Reference value :  5.04928e-06
 Reference value :  5.05810e-06
 Reference value :  5.06565e-06
 Reference value :  5.07452e-06
 Reference value :  5.08405e-06
 Reference value :  5.09926e-06
 Reference value :  5.12063e-06
 Reference value :  5.16337e-06
 Reference value :  5.22509e-06
 Reference value :  5.25010e-06
 Reference value :  5.25011e-06
 Reference value :  5.25013e-06
 Reference value :  5.25017e-06
 Reference value :  5.25020e-06
 Reference value :  5.25020e-06
 Reference value :  5.25020e-06
 Reference value :  5.25021e-06
 Reference value :  5.25021e-06
 Reference value :  5.25023e-06
 Reference value :  5.25025e-06
 Reference value :  5.25031e-06
 Reference value :  5.25041e-06
 Reference value :  5.25062e-06
 Reference value :  5.25098e-06
 Reference value :  5.25135e-06
 Reference value :  5.25182e-06
 Reference value :  5.25236e-06
 Reference value :  5.25307e-06
 Reference value :  5.25389e-06
 Reference value :  5.25463e-06
 Reference value :  5.25548e-06
 Reference value :  5.25637e-06
 Reference value :  5.25718e-06
 Reference value :  5.25846e-06
 Reference value :  5.25978e-06
 Reference value :  5.26181e-06
 Reference value :  5.26456e-06
 Reference value :  5.26852e-06
 Reference value :  5.27643e-06
 Reference value :  5.28970e-06
 Reference value :  5.31352e-06
 Reference value :  5.35728e-06
 Reference value :  5.41299e-06
 Reference value :  5.46732e-06
 Reference value :  5.50000e-06
 Reference value :  5.50001e-06
 Reference value :  5.50003e-06
 Reference value :  5.50007e-06
 Reference value :  5.50010e-06
 Reference value :  5.50010e-06
 Reference value :  5.50011e-06
 Reference value :  5.50013e-06
 Reference value :  5.50017e-06
 Reference value :  5.50023e-06
 Reference value :  5.50036e-06
 Reference value :  5.50056e-06
 Reference value :  5.50096e-06
 Reference value :  5.50146e-06
 Reference value :  5.50199e-06
 Reference value :  5.50249e-06
 Reference value :  5.50302e-06
 Reference value :  5.50358e-06
 Reference value :  5.50435e-06
 Reference value :  5.50504e-06
 Reference value :  5.50592e-06
 Reference value :  5.50696e-06
 Reference value :  5.50810e-06
 Reference value :  5.50939e-06
 Reference value :  5.51054e-06
 Reference value :  5.51175e-06
 Reference value :  5.51300e-06
 Reference value :  5.51429e-06
 Reference value :  5.51609e-06
 Reference value :  5.51793e-06
 Reference value :  5.52134e-06
 Reference value :  5.52620e-06
 Reference value :  5.53459e-06
 Reference value :  5.54971e-06
 Reference value :  5.57522e-06
 Reference value :  5.60687e-06
 Reference value :  5.64289e-06
 Reference value :  5.71491e-06
 Reference value :  5.75010e-06
 Reference value :  5.75011e-06
 Reference value :  5.75013e-06
 Reference value :  5.75017e-06
 Reference value :  5.75020e-06
 Reference value :  5.75020e-06
 Reference value :  5.75020e-06
 Reference value :  5.75021e-06
 Reference value :  5.75021e-06
 Reference value :  5.75023e-06
 Reference value :  5.75025e-06
 Reference value :  5.75030e-06
 Reference value :  5.75041e-06
 Reference value :  5.75062e-06
 Reference value :  5.75097e-06
 Reference value :  5.75134e-06
 Reference value :  5.75181e-06
 Reference value :  5.75234e-06
 Reference value :  5.75304e-06
 Reference value :  5.75386e-06
 Reference value :  5.75464e-06
 Reference value :  5.75552e-06
 Reference value :  5.75637e-06
 Reference value :  5.75716e-06
 Reference value :  5.75805e-06
 Reference value :  5.75908e-06
 Reference value :  5.76093e-06
 Reference value :  5.76347e-06
 Reference value :  5.76678e-06
 Reference value :  5.77339e-06
 Reference value :  5.78663e-06
 Reference value :  5.80863e-06
 Reference value :  5.85263e-06
 Reference value :  5.94064e-06
 Reference value :  6.00000e-06
 Reference value :  6.00001e-06
 Reference value :  6.00003e-06
 Reference value :  6.00007e-06
 Reference value :  6.00010e-06
 Reference value :  6.00010e-06
 Reference value :  6.00011e-06
 Reference value :  6.00013e-06
 Reference value :  6.00016e-06
 Reference value :  6.00023e-06
 Reference value :  6.00036e-06
 Reference value :  6.00056e-06
 Reference value :  6.00096e-06
 Reference value :  6.00145e-06
 Reference value :  6.00198e-06
 Reference value :  6.00248e-06
 Reference value :  6.00302e-06
 Reference value :  6.00358e-06
 Reference value :  6.00427e-06
 Reference value :  6.00499e-06
 Reference value :  6.00575e-06
 Reference value :  6.00650e-06
 Reference value :  6.00725e-06
 Reference value :  6.00799e-06
 Reference value :  6.00878e-06
 Reference value :  6.00980e-06
 Reference value :  6.01120e-06
 Reference value :  6.01333e-06
 Reference value :  6.01571e-06
 Reference value :  6.01748e-06
 Reference value :  6.01942e-06
 Reference value :  6.02091e-06
 Reference value :  6.02248e-06
 Reference value :  6.02416e-06
 Reference value :  6.02593e-06
 Reference value :  6.02782e-06
 Reference value :  6.03032e-06
 Reference value :  6.03441e-06
 Reference value :  6.04228e-06
 Reference value :  6.05212e-06
 Reference value :  6.06323e-06
 Reference value :  6.07660e-06
 Reference value :  6.09249e-06
 Reference value :  6.10913e-06
 Reference value :  6.12052e-06
 Reference value :  6.13189e-06
 Reference value :  6.14772e-06
 Reference value :  6.16519e-06
 Reference value :  6.18230e-06
 Reference value :  6.20234e-06
 Reference value :  6.22271e-06
 Reference value :  6.25010e-06
 Reference value :  6.25011e-06
 Reference value :  6.25013e-06
 Reference value :  6.25017e-06
 Reference value :  6.25020e-06
 Reference value :  6.25020e-06
 Reference value :  6.25020e-06
 Reference value :  6.25021e-06
 Reference value :  6.25021e-06
 Reference value :  6.25023e-06
 Reference value :  6.25025e-06
 Reference value :  6.25031e-06
 Reference value :  6.25041e-06
 Reference value :  6.25062e-06
 Reference value :  6.25098e-06
 Reference value :  6.25135e-06
 Reference value :  6.25182e-06
 Reference value :  6.25236e-06
 Reference value :  6.25305e-06
 Reference value :  6.25389e-06
 Reference value :  6.25459e-06
 Reference value :  6.25540e-06
 Reference value :  6.25616e-06
 Reference value :  6.25697e-06
 Reference value :  6.25816e-06
 Reference value :  6.25939e-06
 Reference value :  6.26137e-06
 Reference value :  6.26397e-06
 Reference value :  6.26747e-06
 Reference value :  6.27448e-06
 Reference value :  6.28770e-06
 Reference value :  6.31028e-06
 Reference value :  6.35544e-06
 Reference value :  6.44576e-06
 Reference value :  6.50000e-06
 Reference value :  6.50001e-06
 Reference value :  6.50003e-06
 Reference value :  6.50007e-06
 Reference value :  6.50010e-06
 Reference value :  6.50010e-06
 Reference value :  6.50011e-06
 Reference value :  6.50013e-06
 Reference value :  6.50016e-06
 Reference value :  6.50023e-06
 Reference value :  6.50036e-06
 Reference value :  6.50056e-06
 Reference value :  6.50096e-06
 Reference value :  6.50146e-06
 Reference value :  6.50198e-06
 Reference value :  6.50245e-06
 Reference value :  6.50303e-06
 Reference value :  6.50356e-06
 Reference value :  6.50423e-06
 Reference value :  6.50494e-06
 Reference value :  6.50570e-06
 Reference value :  6.50678e-06
 Reference value :  6.50778e-06
 Reference value :  6.50928e-06
 Reference value :  6.51027e-06
 Reference value :  6.51142e-06
 Reference value :  6.51244e-06
 Reference value :  6.51362e-06
 Reference value :  6.51486e-06
 Reference value :  6.51629e-06
 Reference value :  6.51916e-06
 Reference value :  6.52352e-06
 Reference value :  6.53225e-06
 Reference value :  6.54971e-06
 Reference value :  6.58359e-06
 Reference value :  6.65133e-06
 Reference value :  6.75010e-06
 Reference value :  6.75011e-06
 Reference value :  6.75013e-06
 Reference value :  6.75017e-06
 Reference value :  6.75020e-06
 Reference value :  6.75020e-06
 Reference value :  6.75020e-06
 Reference value :  6.75021e-06
 Reference value :  6.75021e-06
 Reference value :  6.75023e-06
 Reference value :  6.75025e-06
 Reference value :  6.75030e-06
 Reference value :  6.75041e-06
 Reference value :  6.75062e-06
 Reference value :  6.75097e-06
 Reference value :  6.75134e-06
 Reference value :  6.75181e-06
 Reference value :  6.75234e-06
 Reference value :  6.75304e-06
 Reference value :  6.75386e-06
 Reference value :  6.75463e-06
 Reference value :  6.75550e-06
 Reference value :  6.75635e-06
 Reference value :  6.75713e-06
 Reference value :  6.75804e-06
 Reference value :  6.75906e-06
 Reference value :  6.76018e-06
 Reference value :  6.76144e-06
 Reference value :  6.76334e-06
 Reference value :  6.76534e-06
 Reference value :  6.76847e-06
 Reference value :  6.77278e-06
 Reference value :  6.78139e-06
 Reference value :  6.79863e-06
 Reference value :  6.83092e-06
 Reference value :  6.89550e-06
 Reference value :  7.00000e-06
 Reference value :  7.00001e-06
 Reference value :  7.00003e-06
 Reference value :  7.00007e-06
 Reference value :  7.00010e-06
 Reference value :  7.00010e-06
 Reference value :  7.00011e-06
 Reference value :  7.00013e-06
 Reference value :  7.00016e-06
 Reference value :  7.00023e-06
 Reference value :  7.00036e-06
 Reference value :  7.00056e-06
 Reference value :  7.00096e-06
 Reference value :  7.00145e-06
 Reference value :  7.00198e-06
 Reference value :  7.00248e-06
 Reference value :  7.00302e-06
 Reference value :  7.00358e-06
 Reference value :  7.00432e-06
 Reference value :  7.00499e-06
 Reference value :  7.00563e-06
 Reference value :  7.00631e-06
 Reference value :  7.00700e-06
 Reference value :  7.00775e-06
 Reference value :  7.00842e-06
 Reference value :  7.00937e-06
 Reference value :  7.01036e-06
 Reference value :  7.01186e-06
 Reference value :  7.01301e-06
 Reference value :  7.01427e-06
 Reference value :  7.01553e-06
 Reference value :  7.01694e-06
 Reference value :  7.01823e-06
 Reference value :  7.01929e-06
 Reference value :  7.02032e-06
 Reference value :  7.02156e-06
 Reference value :  7.02266e-06
 Reference value :  7.02380e-06
 Reference value :  7.02513e-06
 Reference value :  7.02699e-06
 Reference value :  7.02885e-06
 Reference value :  7.03214e-06
 Reference value :  7.03531e-06
 Reference value :  7.04011e-06
 Reference value :  7.04516e-06
 Reference value :  7.05327e-06
 Reference value :  7.06630e-06
 Reference value :  7.09060e-06
 Reference value :  7.13719e-06
 Reference value :  7.21820e-06
 Reference value :  7.25010e-06
 Reference value :  7.25011e-06
 Reference value :  7.25013e-06
 Reference value :  7.25017e-06
 Reference value :  7.25020e-06
 Reference value :  7.25020e-06
 Reference value :  7.25020e-06
 Reference value :  7.25021e-06
 Reference value :  7.25021e-06
 Reference value :  7.25023e-06
 Reference value :  7.25025e-06
 Reference value :  7.25030e-06
 Reference value :  7.25041e-06
 Reference value :  7.25062e-06
 Reference value :  7.25097e-06
 Reference value :  7.25134e-06
 Reference value :  7.25181e-06
 Reference value :  7.25234e-06
 Reference value :  7.25305e-06
 Reference value :  7.25386e-06
 Reference value :  7.25460e-06
 Reference value :  7.25545e-06
 Reference value :  7.25632e-06
 Reference value :  7.25714e-06
 Reference value :  7.25841e-06
 Reference value :  7.25972e-06
 Reference value :  7.26175e-06
 Reference value :  7.26447e-06
 Reference value :  7.26833e-06
 Reference value :  7.27605e-06
 Reference value :  7.28939e-06
 Reference value :  7.31310e-06
 Reference value :  7.35758e-06
 Reference value :  7.44655e-06
 Reference value :  7.50000e-06
 Reference value :  7.50001e-06
 Reference value :  7.50003e-06
 Reference value :  7.50007e-06
 Reference value :  7.50010e-06
 Reference value :  7.50010e-06
 Reference value :  7.50011e-06
 Reference value :  7.50013e-06
 Reference value :  7.50016e-06
 Reference value :  7.50023e-06
 Reference value :  7.50036e-06
 Reference value :  7.50056e-06
 Reference value :  7.50096e-06
 Reference value :  7.50145e-06
 Reference value :  7.50197e-06
 Reference value :  7.50244e-06
 Reference value :  7.50300e-06
 Reference value :  7.50354e-06
 Reference value :  7.50421e-06
 Reference value :  7.50493e-06
 Reference value :  7.50573e-06
 Reference value :  7.50679e-06
 Reference value :  7.50786e-06
 Reference value :  7.50940e-06
 Reference value :  7.51044e-06
 Reference value :  7.51162e-06
 Reference value :  7.51260e-06
 Reference value :  7.51380e-06
 Reference value :  7.51500e-06
 Reference value :  7.51641e-06
 Reference value :  7.51921e-06
 Reference value :  7.52403e-06
 Reference value :  7.53348e-06
 Reference value :  7.55226e-06
 Reference value :  7.58904e-06
 Reference value :  7.66261e-06
 Reference value :  7.75010e-06
 Reference value :  7.75011e-06
 Reference value :  7.75013e-06
 Reference value :  7.75017e-06
 Reference value :  7.75020e-06
 Reference value :  7.75020e-06
 Reference value :  7.75020e-06
 Reference value :  7.75021e-06
 Reference value :  7.75021e-06
 Reference value :  7.75023e-06
 Reference value :  7.75025e-06
 Reference value :  7.75030e-06
 Reference value :  7.75041e-06
 Reference value :  7.75062e-06
 Reference value :  7.75097e-06
 Reference value :  7.75134e-06
 Reference value :  7.75181e-06
 Reference value :  7.75234e-06
 Reference value :  7.75304e-06
 Reference value :  7.75386e-06
 Reference value :  7.75460e-06
 Reference value :  7.75546e-06
 Reference value :  7.75622e-06
 Reference value :  7.75701e-06
 Reference value :  7.75790e-06
 Reference value :  7.75889e-06
 Reference value :  7.75995e-06
 Reference value :  7.76126e-06
 Reference value :  7.76305e-06
 Reference value :  7.76508e-06
 Reference value :  7.76801e-06
 Reference value :  7.77196e-06
 Reference value :  7.77986e-06
 Reference value :  7.79435e-06
 Reference value :  7.82333e-06
 Reference value :  7.88130e-06
 Reference value :  7.99723e-06
 Reference value :  8.00000e-06
 Reference value :  8.00001e-06
 Reference value :  8.00003e-06
 Reference value :  8.00007e-06
 Reference value :  8.00010e-06
 Reference value :  8.00010e-06
 Reference value :  8.00011e-06
 Reference value :  8.00013e-06
 Reference value :  8.00017e-06
 Reference value :  8.00023e-06
 Reference value :  8.00036e-06
 Reference value :  8.00056e-06
 Reference value :  8.00096e-06
 Reference value :  8.00145e-06
 Reference value :  8.00197e-06
 Reference value :  8.00247e-06
 Reference value :  8.00301e-06
 Reference value :  8.00356e-06
 Reference value :  8.00429e-06
 Reference value :  8.00497e-06
 Reference value :  8.00565e-06
 Reference value :  8.00634e-06
 Reference value :  8.00704e-06
 Reference value :  8.00772e-06
 Reference value :  8.00842e-06
 Reference value :  8.00936e-06
 Reference value :  8.01033e-06
 Reference value :  8.01175e-06
 Reference value :  8.01305e-06
 Reference value :  8.01445e-06
 Reference value :  8.01602e-06
 Reference value :  8.01750e-06
 Reference value :  8.01906e-06
 Reference value :  8.02100e-06
 Reference value :  8.02231e-06
 Reference value :  8.02393e-06
 Reference value :  8.02565e-06
 Reference value :  8.02909e-06
 Reference value :  8.03383e-06
 Reference value :  8.04309e-06
 Reference value :  8.05390e-06
 Reference value :  8.07553e-06
 Reference value :  8.11583e-06
 Reference value :  8.17447e-06
 Reference value :  8.22998e-06
 Reference value :  8.25010e-06
 Reference value :  8.25011e-06
 Reference value :  8.25013e-06
 Reference value :  8.25017e-06
 Reference value :  8.25020e-06
 Reference value :  8.25020e-06
 Reference value :  8.25020e-06
 Reference value :  8.25021e-06
 Reference value :  8.25021e-06
 Reference value :  8.25023e-06
 Reference value :  8.25025e-06
 Reference value :  8.25030e-06
 Reference value :  8.25041e-06
 Reference value :  8.25062e-06
 Reference value :  8.25098e-06
 Reference value :  8.25135e-06
 Reference value :  8.25182e-06
 Reference value :  8.25236e-06
 Reference value :  8.25305e-06
 Reference value :  8.25388e-06
 Reference value :  8.25494e-06
 Reference value :  8.25600e-06
 Reference value :  8.25730e-06
 Reference value :  8.25855e-06
 Reference value :  8.26056e-06
 Reference value :  8.26266e-06
 Reference value :  8.26597e-06
 Reference value :  8.27060e-06
 Reference value :  8.27984e-06
 Reference value :  8.29833e-06
 Reference value :  8.33531e-06
 Reference value :  8.37436e-06
 Reference value :  8.43672e-06
 Reference value :  8.47137e-06
 Reference value :  8.50000e-06
 Reference value :  8.50000e-06
 Reference value :  8.50000e-06
 Reference value :  8.50000e-06
 Reference value :  8.50000e-06
 Reference value :  8.50000e-06
 Reference value :  8.50000e-06
 Reference value :  8.50000e-06
 Reference value :  8.50000e-06
 Reference value :  8.50000e-06
 Reference value :  8.50001e-06
 Reference value :  8.50001e-06
 Reference value :  8.50002e-06
 Reference value :  8.50004e-06
 Reference value :  8.50008e-06
 Reference value :  8.50010e-06
 Reference value :  8.50010e-06
 Reference value :  8.50011e-06
 Reference value :  8.50012e-06
 Reference value :  8.50014e-06
 Reference value :  8.50018e-06
 Reference value :  8.50027e-06
 Reference value :  8.50044e-06
 Reference value :  8.50079e-06
 Reference value :  8.50129e-06
 Reference value :  8.50198e-06
 Reference value :  8.50270e-06
 Reference value :  8.50333e-06
 Reference value :  8.50398e-06
 Reference value :  8.50465e-06
 Reference value :  8.50536e-06
 Reference value :  8.50633e-06
 Reference value :  8.50734e-06
 Reference value :  8.50885e-06
 Reference value :  8.51051e-06
 Reference value :  8.51177e-06
 Reference value :  8.51318e-06
 Reference value :  8.51501e-06
 Reference value :  8.51736e-06
 Reference value :  8.51961e-06
 Reference value :  8.52410e-06
 Reference value :  8.52901e-06
 Reference value :  8.53242e-06
 Reference value :  8.53530e-06
 Reference value :  8.53798e-06
 Reference value :  8.54059e-06
 Reference value :  8.54272e-06
 Reference value :  8.54481e-06
 Reference value :  8.54672e-06
 Reference value :  8.54879e-06
 Reference value :  8.55133e-06
 Reference value :  8.55434e-06
 Reference value :  8.55864e-06
 Reference value :  8.56281e-06
 Reference value :  8.56678e-06
 Reference value :  8.57092e-06
 Reference value :  8.57426e-06
 Reference value :  8.57810e-06
 Reference value :  8.58413e-06
 Reference value :  8.59036e-06
 Reference value :  8.59650e-06
 Reference value :  8.60400e-06
 Reference value :  8.61899e-06
 Reference value :  8.64495e-06
 Reference value :  8.68809e-06
 Reference value :  8.75010e-06
 Reference value :  8.75011e-06
 Reference value :  8.75013e-06
 Reference value :  8.75017e-06
 Reference value :  8.75020e-06
 Reference value :  8.75020e-06
 Reference value :  8.75020e-06
 Reference value :  8.75021e-06
 Reference value :  8.75021e-06
 Reference value :  8.75023e-06
 Reference value :  8.75025e-06
 Reference value :  8.75030e-06
 Reference value :  8.75041e-06
 Reference value :  8.75062e-06
 Reference value :  8.75097e-06
 Reference value :  8.75135e-06
 Reference value :  8.75183e-06
 Reference value :  8.75236e-06
 Reference value :  8.75301e-06
 Reference value :  8.75389e-06
 Reference value :  8.75465e-06
 Reference value :  8.75549e-06
 Reference value :  8.75631e-06
 Reference value :  8.75715e-06
 Reference value :  8.75854e-06
 Reference value :  8.75989e-06
 Reference value :  8.76196e-06
 Reference value :  8.76473e-06
 Reference value :  8.76885e-06
 Reference value :  8.77711e-06
 Reference value :  8.79038e-06
 Reference value :  8.81482e-06
 Reference value :  8.85837e-06
 Reference value :  8.93496e-06
 Reference value :  9.00000e-06
 Reference value :  9.00001e-06
 Reference value :  9.00003e-06
 Reference value :  9.00007e-06
 Reference value :  9.00010e-06
 Reference value :  9.00010e-06
 Reference value :  9.00011e-06
 Reference value :  9.00013e-06
 Reference value :  9.00016e-06
 Reference value :  9.00023e-06
 Reference value :  9.00036e-06
 Reference value :  9.00058e-06
 Reference value :  9.00100e-06
 Reference value :  9.00150e-06
 Reference value :  9.00203e-06
 Reference value :  9.00251e-06
 Reference value :  9.00308e-06
 Reference value :  9.00370e-06
 Reference value :  9.00446e-06
 Reference value :  9.00525e-06
 Reference value :  9.00600e-06
 Reference value :  9.00723e-06
 Reference value :  9.00837e-06
 Reference value :  9.01018e-06
 Reference value :  9.01230e-06
 Reference value :  9.01385e-06
 Reference value :  9.01558e-06
 Reference value :  9.01731e-06
 Reference value :  9.01929e-06
 Reference value :  9.02156e-06
 Reference value :  9.02373e-06
 Reference value :  9.02801e-06
 Reference value :  9.03411e-06
 Reference value :  9.04254e-06
 Reference value :  9.05939e-06
 Reference value :  9.08844e-06
 Reference value :  9.14499e-06
 Reference value :  9.24930e-06
 Reference value :  9.25010e-06
 Reference value :  9.25011e-06
 Reference value :  9.25013e-06
 Reference value :  9.25017e-06
 Reference value :  9.25020e-06
 Reference value :  9.25020e-06
 Reference value :  9.25020e-06
 Reference value :  9.25021e-06
 Reference value :  9.25021e-06
 Reference value :  9.25023e-06
 Reference value :  9.25025e-06
 Reference value :  9.25030e-06
 Reference value :  9.25041e-06
 Reference value :  9.25062e-06
 Reference value :  9.25097e-06
 Reference value :  9.25135e-06
 Reference value :  9.25182e-06
 Reference value :  9.25236e-06
 Reference value :  9.25308e-06
 Reference value :  9.25392e-06
 Reference value :  9.25466e-06
 Reference value :  9.25553e-06
 Reference value :  9.25629e-06
 Reference value :  9.25708e-06
 Reference value :  9.25797e-06
 Reference value :  9.25897e-06
 Reference value :  9.25988e-06
 Reference value :  9.26135e-06
 Reference value :  9.26271e-06
 Reference value :  9.26487e-06
 Reference value :  9.26734e-06
 Reference value :  9.27103e-06
 Reference value :  9.27675e-06
 Reference value :  9.28450e-06
 Reference value :  9.29670e-06
 Reference value :  9.31647e-06
 Reference value :  9.35141e-06
 Reference value :  9.40700e-06
 Reference value :  9.50000e-06
 Reference value :  9.50001e-06
 Reference value :  9.50003e-06
 Reference value :  9.50007e-06
 Reference value :  9.50010e-06
 Reference value :  9.50010e-06
 Reference value :  9.50011e-06
 Reference value :  9.50013e-06
 Reference value :  9.50016e-06
 Reference value :  9.50023e-06
 Reference value :  9.50036e-06
 Reference value :  9.50058e-06
 Reference value :  9.50100e-06
 Reference value :  9.50150e-06
 Reference value :  9.50203e-06
 Reference value :  9.50253e-06
 Reference value :  9.50313e-06
 Reference value :  9.50370e-06
 Reference value :  9.50449e-06
 Reference value :  9.50521e-06
 Reference value :  9.50594e-06
 Reference value :  9.50689e-06
 Reference value :  9.50776e-06
 Reference value :  9.50858e-06
 Reference value :  9.50949e-06
 Reference value :  9.51058e-06
 Reference value :  9.51214e-06
 Reference value :  9.51400e-06
 Reference value :  9.51534e-06
 Reference value :  9.51682e-06
 Reference value :  9.51827e-06
 Reference value :  9.51968e-06
 Reference value :  9.52076e-06
 Reference value :  9.52192e-06
 Reference value :  9.52327e-06
 Reference value :  9.52477e-06
 Reference value :  9.52631e-06
 Reference value :  9.52860e-06
 Reference value :  9.53147e-06
 Reference value :  9.53720e-06
 Reference value :  9.54563e-06
 Reference value :  9.56048e-06
 Reference value :  9.58620e-06
 Reference value :  9.62884e-06
 Reference value :  9.69784e-06
 Reference value :  9.75010e-06
 Reference value :  9.75011e-06
 Reference value :  9.75013e-06
 Reference value :  9.75017e-06
 Reference value :  9.75020e-06
 Reference value :  9.75020e-06
 Reference value :  9.75020e-06
 Reference value :  9.75021e-06
 Reference value :  9.75021e-06
 Reference value :  9.75023e-06
 Reference value :  9.75025e-06
 Reference value :  9.75031e-06
 Reference value :  9.75041e-06
 Reference value :  9.75062e-06
 Reference value :  9.75098e-06
 Reference value :  9.75135e-06
 Reference value :  9.75182e-06
 Reference value :  9.75236e-06
 Reference value :  9.75304e-06
 Reference value :  9.75389e-06
 Reference value :  9.75467e-06
 Reference value :  9.75552e-06
 Reference value :  9.75641e-06
 Reference value :  9.75726e-06
 Reference value :  9.75873e-06
 Reference value :  9.76009e-06
 Reference value :  9.76220e-06
 Reference value :  9.76503e-06
 Reference value :  9.76959e-06
 Reference value :  9.77870e-06
 Reference value :  9.79246e-06
 Reference value :  9.81896e-06
 Reference value :  9.86401e-06
 Reference value :  9.92909e-06
 Reference value :  1.00000e-05
 Reference value :  1.00000e-05
 Reference value :  1.00000e-05
 Reference value :  1.00001e-05
 Reference value :  1.00001e-05
 Reference value :  1.00001e-05
 Reference value :  1.00001e-05
 Reference value :  1.00001e-05
 Reference value :  1.00002e-05
 Reference value :  1.00002e-05
 Reference value :  1.00004e-05
 Reference value :  1.00006e-05
 Reference value :  1.00010e-05
 Reference value :  1.00015e-05
 Reference value :  1.00020e-05
 Reference value :  1.00025e-05
 Reference value :  1.00030e-05
 Reference value :  1.00036e-05
 Reference value :  1.00042e-05
 Reference value :  1.00050e-05
 Reference value :  1.00058e-05
 Reference value :  1.00068e-05
 Reference value :  1.00079e-05
 Reference value :  1.00094e-05
 Reference value :  1.00104e-05
 Reference value :  1.00115e-05
 Reference value :  1.00128e-05
 Reference value :  1.00143e-05
 Reference value :  1.00157e-05
 Reference value :  1.00174e-05
 Reference value :  1.00207e-05
 Reference value :  1.00251e-05
 Reference value :  1.00339e-05
 Reference value :  1.00501e-05
 Reference value :  1.00796e-05
 Reference value :  1.01386e-05
 Reference value :  1.02501e-05
 Reference value :  1.02501e-05
 Reference value :  1.02501e-05
 Reference value :  1.02502e-05
 Reference value :  1.02502e-05
 Reference value :  1.02502e-05
 Reference value :  1.02502e-05
 Reference value :  1.02502e-05
 Reference value :  1.02502e-05
 Reference value :  1.02502e-05
 Reference value :  1.02503e-05
 Reference value :  1.02503e-05
 Reference value :  1.02504e-05
 Reference value :  1.02506e-05
 Reference value :  1.02510e-05
 Reference value :  1.02513e-05
 Reference value :  1.02518e-05
 Reference value :  1.02523e-05
 Reference value :  1.02530e-05
 Reference value :  1.02539e-05
 Reference value :  1.02546e-05
 Reference value :  1.02555e-05
 Reference value :  1.02564e-05
 Reference value :  1.02572e-05
 Reference value :  1.02581e-05
 Reference value :  1.02591e-05
 Reference value :  1.02604e-05
 Reference value :  1.02616e-05
 Reference value :  1.02634e-05
 Reference value :  1.02655e-05
 Reference value :  1.02687e-05
 Reference value :  1.02734e-05
 Reference value :  1.02827e-05
 Reference value :  1.03015e-05
 Reference value :  1.03373e-05
 Reference value :  1.04090e-05
 Reference value :  1.05000e-05
 Reference value :  1.05000e-05
 Reference value :  1.05000e-05
 Reference value :  1.05001e-05
 Reference value :  1.05001e-05
 Reference value :  1.05001e-05
 Reference value :  1.05001e-05
 Reference value :  1.05001e-05
 Reference value :  1.05002e-05
 Reference value :  1.05002e-05
 Reference value :  1.05004e-05
 Reference value :  1.05006e-05
 Reference value :  1.05010e-05
 Reference value :  1.05015e-05
 Reference value :  1.05020e-05
 Reference value :  1.05025e-05
 Reference value :  1.05030e-05
 Reference value :  1.05036e-05
 Reference value :  1.05043e-05
 Reference value :  1.05050e-05
 Reference value :  1.05056e-05
 Reference value :  1.05063e-05
 Reference value :  1.05070e-05
 Reference value :  1.05077e-05
 Reference value :  1.05085e-05
 Reference value :  1.05093e-05
 Reference value :  1.05103e-05
 Reference value :  1.05118e-05
 Reference value :  1.05140e-05
 Reference value :  1.05154e-05
 Reference value :  1.05170e-05
 Reference value :  1.05185e-05
 Reference value :  1.05197e-05
 Reference value :  1.05208e-05
 Reference value :  1.05220e-05
 Reference value :  1.05232e-05
 Reference value :  1.05246e-05
 Reference value :  1.05260e-05
 Reference value :  1.05284e-05
 Reference value :  1.05306e-05
 Reference value :  1.05350e-05
 Reference value :  1.05426e-05
 Reference value :  1.05544e-05
 Reference value :  1.05748e-05
 Reference value :  1.06046e-05
 Reference value :  1.06522e-05
 Reference value :  1.07376e-05
 Reference value :  1.07501e-05
 Reference value :  1.07501e-05
 Reference value :  1.07501e-05
 Reference value :  1.07502e-05
 Reference value :  1.07502e-05
 Reference value :  1.07502e-05
 Reference value :  1.07502e-05
 Reference value :  1.07502e-05
 Reference value :  1.07502e-05
 Reference value :  1.07502e-05
 Reference value :  1.07503e-05
 Reference value :  1.07503e-05
 Reference value :  1.07504e-05
 Reference value :  1.07506e-05
 Reference value :  1.07510e-05
 Reference value :  1.07514e-05
 Reference value :  1.07518e-05
 Reference value :  1.07524e-05
 Reference value :  1.07531e-05
 Reference value :  1.07539e-05
 Reference value :  1.07546e-05
 Reference value :  1.07555e-05
 Reference value :  1.07564e-05
 Reference value :  1.07572e-05
 Reference value :  1.07587e-05
 Reference value :  1.07600e-05
 Reference value :  1.07621e-05
 Reference value :  1.07649e-05
 Reference value :  1.07693e-05
 Reference value :  1.07782e-05
 Reference value :  1.07918e-05
 Reference value :  1.08178e-05
 Reference value :  1.08626e-05
 Reference value :  1.09255e-05
 Reference value :  1.09881e-05
 Reference value :  1.10000e-05
 Reference value :  1.10000e-05
 Reference value :  1.10000e-05
 Reference value :  1.10001e-05
 Reference value :  1.10001e-05
 Reference value :  1.10001e-05
 Reference value :  1.10001e-05
 Reference value :  1.10001e-05
 Reference value :  1.10002e-05
 Reference value :  1.10002e-05
 Reference value :  1.10004e-05
 Reference value :  1.10006e-05
 Reference value :  1.10010e-05
 Reference value :  1.10015e-05
 Reference value :  1.10020e-05
 Reference value :  1.10025e-05
 Reference value :  1.10030e-05
 Reference value :  1.10036e-05
 Reference value :  1.10042e-05
 Reference value :  1.10050e-05
 Reference value :  1.10058e-05
 Reference value :  1.10068e-05
 Reference value :  1.10079e-05
 Reference value :  1.10094e-05
 Reference value :  1.10104e-05
 Reference value :  1.10115e-05
 Reference value :  1.10127e-05
 Reference value :  1.10141e-05
 Reference value :  1.10156e-05
 Reference value :  1.10172e-05
 Reference value :  1.10203e-05
 Reference value :  1.10254e-05
 Reference value :  1.10349e-05
 Reference value :  1.10532e-05
 Reference value :  1.10869e-05
 Reference value :  1.11542e-05
 Reference value :  1.12501e-05
 Reference value :  1.12501e-05
 Reference value :  1.12501e-05
 Reference value :  1.12502e-05
 Reference value :  1.12502e-05
 Reference value :  1.12502e-05
 Reference value :  1.12502e-05
 Reference value :  1.12502e-05
 Reference value :  1.12502e-05
 Reference value :  1.12502e-05
 Reference value :  1.12503e-05
 Reference value :  1.12503e-05
 Reference value :  1.12504e-05
 Reference value :  1.12506e-05
 Reference value :  1.12510e-05
 Reference value :  1.12513e-05
 Reference value :  1.12518e-05
 Reference value :  1.12523e-05
 Reference value :  1.12530e-05
 Reference value :  1.12539e-05
 Reference value :  1.12546e-05
 Reference value :  1.12555e-05
 Reference value :  1.12564e-05
 Reference value :  1.12572e-05
 Reference value :  1.12581e-05
 Reference value :  1.12591e-05
 Reference value :  1.12604e-05
 Reference value :  1.12616e-05
 Reference value :  1.12634e-05
 Reference value :  1.12655e-05
 Reference value :  1.12687e-05
 Reference value :  1.12734e-05
 Reference value :  1.12828e-05
 Reference value :  1.13015e-05
 Reference value :  1.13374e-05
 Reference value :  1.14093e-05
 Reference value :  1.15000e-05
 Reference value :  1.15000e-05
 Reference value :  1.15000e-05
 Reference value :  1.15001e-05
 Reference value :  1.15001e-05
 Reference value :  1.15001e-05
 Reference value :  1.15001e-05
 Reference value :  1.15001e-05
 Reference value :  1.15002e-05
 Reference value :  1.15002e-05
 Reference value :  1.15004e-05
 Reference value :  1.15006e-05
 Reference value :  1.15010e-05
 Reference value :  1.15015e-05
 Reference value :  1.15020e-05
 Reference value :  1.15025e-05
 Reference value :  1.15030e-05
 Reference value :  1.15036e-05
 Reference value :  1.15043e-05
 Reference value :  1.15050e-05
 Reference value :  1.15056e-05
 Reference value :  1.15063e-05
 Reference value :  1.15070e-05
 Reference value :  1.15077e-05
 Reference value :  1.15084e-05
 Reference value :  1.15093e-05
 Reference value :  1.15103e-05
 Reference value :  1.15119e-05
 Reference value :  1.15134e-05
 Reference value :  1.15150e-05
 Reference value :  1.15165e-05
 Reference value :  1.15179e-05
 Reference value :  1.15190e-05
 Reference value :  1.15200e-05
 Reference value :  1.15212e-05
 Reference value :  1.15223e-05
 Reference value :  1.15234e-05
 Reference value :  1.15246e-05
 Reference value :  1.15264e-05
 Reference value :  1.15282e-05
 Reference value :  1.15314e-05
 Reference value :  1.15367e-05
 Reference value :  1.15449e-05
 Reference value :  1.15596e-05
 Reference value :  1.15836e-05
 Reference value :  1.16206e-05
 Reference value :  1.16516e-05
 Reference value :  1.16884e-05
 Reference value :  1.17183e-05
 Reference value :  1.17498e-05
 Reference value :  1.17501e-05
 Reference value :  1.17501e-05
 Reference value :  1.17501e-05
 Reference value :  1.17502e-05
 Reference value :  1.17502e-05
 Reference value :  1.17502e-05
 Reference value :  1.17502e-05
 Reference value :  1.17502e-05
 Reference value :  1.17502e-05
 Reference value :  1.17502e-05
 Reference value :  1.17503e-05
 Reference value :  1.17503e-05
 Reference value :  1.17504e-05
 Reference value :  1.17506e-05
 Reference value :  1.17510e-05
 Reference value :  1.17513e-05
 Reference value :  1.17518e-05
 Reference value :  1.17523e-05
 Reference value :  1.17530e-05
 Reference value :  1.17539e-05
 Reference value :  1.17546e-05
 Reference value :  1.17555e-05
 Reference value :  1.17564e-05
 Reference value :  1.17572e-05
 Reference value :  1.17587e-05
 Reference value :  1.17600e-05
 Reference value :  1.17621e-05
 Reference value :  1.17649e-05
 Reference value :  1.17694e-05
 Reference value :  1.17782e-05
 Reference value :  1.17920e-05
 Reference value :  1.18182e-05
 Reference value :  1.18637e-05
 Reference value :  1.19440e-05
 Reference value :  1.20000e-05
 Reference value :  1.20000e-05
 Reference value :  1.20000e-05
 Reference value :  1.20001e-05
 Reference value :  1.20001e-05
 Reference value :  1.20001e-05
 Reference value :  1.20001e-05
 Reference value :  1.20001e-05
 Reference value :  1.20002e-05
 Reference value :  1.20002e-05
 Reference value :  1.20004e-05
 Reference value :  1.20006e-05
 Reference value :  1.20010e-05
 Reference value :  1.20015e-05
 Reference value :  1.20020e-05
 Reference value :  1.20025e-05
 Reference value :  1.20030e-05
 Reference value :  1.20036e-05
 Reference value :  1.20042e-05
 Reference value :  1.20049e-05
 Reference value :  1.20057e-05
 Reference value :  1.20068e-05
 Reference value :  1.20078e-05
 Reference value :  1.20093e-05
 Reference value :  1.20103e-05
 Reference value :  1.20114e-05
 Reference value :  1.20125e-05
 Reference value :  1.20137e-05
 Reference value :  1.20150e-05
 Reference value :  1.20164e-05
 Reference value :  1.20192e-05
 Reference value :  1.20247e-05
 Reference value :  1.20341e-05
 Reference value :  1.20528e-05
 Reference value :  1.20903e-05
 Reference value :  1.21653e-05
 Reference value :  1.22501e-05
 Reference value :  1.22501e-05
 Reference value :  1.22501e-05
 Reference value :  1.22502e-05
 Reference value :  1.22502e-05
 Reference value :  1.22502e-05
 Reference value :  1.22502e-05
 Reference value :  1.22502e-05
 Reference value :  1.22502e-05
 Reference value :  1.22502e-05
 Reference value :  1.22503e-05
 Reference value :  1.22503e-05
 Reference value :  1.22504e-05
 Reference value :  1.22506e-05
 Reference value :  1.22510e-05
 Reference value :  1.22513e-05
 Reference value :  1.22518e-05
 Reference value :  1.22523e-05
 Reference value :  1.22530e-05
 Reference value :  1.22539e-05
 Reference value :  1.22546e-05
 Reference value :  1.22555e-05
 Reference value :  1.22564e-05
 Reference value :  1.22572e-05
 Reference value :  1.22581e-05
 Reference value :  1.22591e-05
 Reference value :  1.22603e-05
 Reference value :  1.22616e-05
 Reference value :  1.22634e-05
 Reference value :  1.22655e-05
 Reference value :  1.22687e-05
 Reference value :  1.22733e-05
 Reference value :  1.22827e-05
 Reference value :  1.23013e-05
 Reference value :  1.23371e-05
 Reference value :  1.24086e-05
 Reference value :  1.25000e-05
 Reference value :  1.25000e-05
 Reference value :  1.25000e-05
 Reference value :  1.25001e-05
 Reference value :  1.25001e-05
 Reference value :  1.25001e-05
 Reference value :  1.25001e-05
 Reference value :  1.25001e-05
 Reference value :  1.25002e-05
 Reference value :  1.25002e-05
 Reference value :  1.25004e-05
 Reference value :  1.25006e-05
 Reference value :  1.25010e-05
 Reference value :  1.25015e-05
 Reference value :  1.25020e-05
 Reference value :  1.25025e-05
 Reference value :  1.25030e-05
 Reference value :  1.25036e-05
 Reference value :  1.25043e-05
 Reference value :  1.25050e-05
 Reference value :  1.25056e-05
 Reference value :  1.25063e-05
 Reference value :  1.25070e-05
 Reference value :  1.25077e-05
 Reference value :  1.25084e-05
 Reference value :  1.25094e-05
 Reference value :  1.25103e-05
 Reference value :  1.25120e-05
 Reference value :  1.25130e-05
 Reference value :  1.25142e-05
 Reference value :  1.25154e-05
 Reference value :  1.25168e-05
 Reference value :  1.25183e-05
 Reference value :  1.25195e-05
 Reference value :  1.25207e-05
 Reference value :  1.25219e-05
 Reference value :  1.25232e-05
 Reference value :  1.25247e-05
 Reference value :  1.25263e-05
 Reference value :  1.25286e-05
 Reference value :  1.25314e-05
 Reference value :  1.25371e-05
 Reference value :  1.25479e-05
 Reference value :  1.25625e-05
 Reference value :  1.25773e-05
 Reference value :  1.25932e-05
 Reference value :  1.26083e-05
 Reference value :  1.26251e-05
 Reference value :  1.26414e-05
 Reference value :  1.26626e-05
 Reference value :  1.26841e-05
 Reference value :  1.27090e-05
 Reference value :  1.27357e-05
 Reference value :  1.27501e-05
 Reference value :  1.27501e-05
 Reference value :  1.27501e-05
 Reference value :  1.27502e-05
 Reference value :  1.27502e-05
 Reference value :  1.27502e-05
 Reference value :  1.27502e-05
 Reference value :  1.27502e-05
 Reference value :  1.27502e-05
 Reference value :  1.27502e-05
 Reference value :  1.27503e-05
 Reference value :  1.27503e-05
 Reference value :  1.27504e-05
 Reference value :  1.27506e-05
 Reference value :  1.27510e-05
 Reference value :  1.27514e-05
 Reference value :  1.27518e-05
 Reference value :  1.27524e-05
 Reference value :  1.27531e-05
 Reference value :  1.27539e-05
 Reference value :  1.27546e-05
 Reference value :  1.27555e-05
 Reference value :  1.27564e-05
 Reference value :  1.27572e-05
 Reference value :  1.27585e-05
 Reference value :  1.27599e-05
 Reference value :  1.27619e-05
 Reference value :  1.27647e-05
 Reference value :  1.27687e-05
 Reference value :  1.27767e-05
 Reference value :  1.27901e-05
 Reference value :  1.28141e-05
 Reference value :  1.28580e-05
 Reference value :  1.29457e-05
 Reference value :  1.30000e-05
 Reference value :  1.30000e-05
 Reference value :  1.30000e-05
 Reference value :  1.30001e-05
 Reference value :  1.30001e-05
 Reference value :  1.30001e-05
 Reference value :  1.30001e-05
 Reference value :  1.30001e-05
 Reference value :  1.30002e-05
 Reference value :  1.30002e-05
 Reference value :  1.30004e-05
 Reference value :  1.30006e-05
 Reference value :  1.30010e-05
 Reference value :  1.30015e-05
 Reference value :  1.30020e-05
 Reference value :  1.30024e-05
 Reference value :  1.30030e-05
 Reference value :  1.30036e-05
 Reference value :  1.30042e-05
 Reference value :  1.30049e-05
 Reference value :  1.30057e-05
 Reference value :  1.30068e-05
 Reference value :  1.30078e-05
 Reference value :  1.30092e-05
 Reference value :  1.30101e-05
 Reference value :  1.30112e-05
 Reference value :  1.30122e-05
 Reference value :  1.30134e-05
 Reference value :  1.30145e-05
 Reference value :  1.30159e-05
 Reference value :  1.30186e-05
 Reference value :  1.30239e-05
 Reference value :  1.30335e-05
 Reference value :  1.30525e-05
 Reference value :  1.30905e-05
 Reference value :  1.31667e-05
 Reference value :  1.32501e-05
 Reference value :  1.32501e-05
 Reference value :  1.32501e-05
 Reference value :  1.32502e-05
 Reference value :  1.32502e-05
 Reference value :  1.32502e-05
 Reference value :  1.32502e-05
 Reference value :  1.32502e-05
 Reference value :  1.32502e-05
 Reference value :  1.32502e-05
 Reference value :  1.32503e-05
 Reference value :  1.32503e-05
 Reference value :  1.32504e-05
 Reference value :  1.32506e-05
 Reference value :  1.32510e-05
 Reference value :  1.32513e-05
 Reference value :  1.32518e-05
 Reference value :  1.32523e-05
 Reference value :  1.32530e-05
 Reference value :  1.32539e-05
 Reference value :  1.32546e-05
 Reference value :  1.32555e-05
 Reference value :  1.32564e-05
 Reference value :  1.32571e-05
 Reference value :  1.32581e-05
 Reference value :  1.32591e-05
 Reference value :  1.32603e-05
 Reference value :  1.32615e-05
 Reference value :  1.32634e-05
 Reference value :  1.32655e-05
 Reference value :  1.32686e-05
 Reference value :  1.32732e-05
 Reference value :  1.32825e-05
 Reference value :  1.33009e-05
 Reference value :  1.33362e-05
 Reference value :  1.34067e-05
 Reference value :  1.35000e-05
 Reference value :  1.35000e-05
 Reference value :  1.35000e-05
 Reference value :  1.35001e-05
 Reference value :  1.35001e-05
 Reference value :  1.35001e-05
 Reference value :  1.35001e-05
 Reference value :  1.35001e-05
 Reference value :  1.35002e-05
 Reference value :  1.35002e-05
 Reference value :  1.35004e-05
 Reference value :  1.35006e-05
 Reference value :  1.35010e-05
 Reference value :  1.35015e-05
 Reference value :  1.35020e-05
 Reference value :  1.35025e-05
 Reference value :  1.35030e-05
 Reference value :  1.35036e-05
 Reference value :  1.35043e-05
 Reference value :  1.35050e-05
 Reference value :  1.35056e-05
 Reference value :  1.35063e-05
 Reference value :  1.35070e-05
 Reference value :  1.35077e-05
 Reference value :  1.35084e-05
 Reference value :  1.35093e-05
 Reference value :  1.35103e-05
 Reference value :  1.35119e-05
 Reference value :  1.35130e-05
 Reference value :  1.35142e-05
 Reference value :  1.35155e-05
 Reference value :  1.35169e-05
 Reference value :  1.35185e-05
 Reference value :  1.35197e-05
 Reference value :  1.35209e-05
 Reference value :  1.35221e-05
 Reference value :  1.35234e-05
 Reference value :  1.35249e-05
 Reference value :  1.35265e-05
 Reference value :  1.35288e-05
 Reference value :  1.35318e-05
 Reference value :  1.35380e-05
 Reference value :  1.35485e-05
 Reference value :  1.35571e-05
 Reference value :  1.35647e-05
 Reference value :  1.35736e-05
 Reference value :  1.35828e-05
 Reference value :  1.35974e-05
 Reference value :  1.36175e-05
 Reference value :  1.36577e-05
 Reference value :  1.37328e-05
 Reference value :  1.37501e-05
 Reference value :  1.37501e-05
 Reference value :  1.37501e-05
 Reference value :  1.37502e-05
 Reference value :  1.37502e-05
 Reference value :  1.37502e-05
 Reference value :  1.37502e-05
 Reference value :  1.37502e-05
 Reference value :  1.37502e-05
 Reference value :  1.37502e-05
 Reference value :  1.37503e-05
 Reference value :  1.37503e-05
 Reference value :  1.37504e-05
 Reference value :  1.37506e-05
 Reference value :  1.37510e-05
 Reference value :  1.37514e-05
 Reference value :  1.37518e-05
 Reference value :  1.37524e-05
 Reference value :  1.37531e-05
 Reference value :  1.37539e-05
 Reference value :  1.37546e-05
 Reference value :  1.37555e-05
 Reference value :  1.37564e-05
 Reference value :  1.37572e-05
 Reference value :  1.37585e-05
 Reference value :  1.37598e-05
 Reference value :  1.37619e-05
 Reference value :  1.37646e-05
 Reference value :  1.37687e-05
 Reference value :  1.37768e-05
 Reference value :  1.37900e-05
 Reference value :  1.38141e-05
 Reference value :  1.38575e-05
 Reference value :  1.39425e-05
 Reference value :  1.40000e-05
 Reference value :  1.40000e-05
 Reference value :  1.40000e-05
 Reference value :  1.40001e-05
 Reference value :  1.40001e-05
 Reference value :  1.40001e-05
 Reference value :  1.40001e-05
 Reference value :  1.40001e-05
 Reference value :  1.40002e-05
 Reference value :  1.40002e-05
 Reference value :  1.40004e-05
 Reference value :  1.40006e-05
 Reference value :  1.40010e-05
 Reference value :  1.40015e-05
 Reference value :  1.40020e-05
 Reference value :  1.40025e-05
 Reference value :  1.40030e-05
 Reference value :  1.40036e-05
 Reference value :  1.40042e-05
 Reference value :  1.40049e-05
 Reference value :  1.40058e-05
 Reference value :  1.40068e-05
 Reference value :  1.40079e-05
 Reference value :  1.40093e-05
 Reference value :  1.40103e-05
 Reference value :  1.40114e-05
 Reference value :  1.40124e-05
 Reference value :  1.40136e-05
 Reference value :  1.40148e-05
 Reference value :  1.40162e-05
 Reference value :  1.40190e-05
 Reference value :  1.40233e-05
 Reference value :  1.40319e-05
 Reference value :  1.40491e-05
 Reference value :  1.40817e-05
 Reference value :  1.41469e-05
 Reference value :  1.42501e-05
 Reference value :  1.42501e-05
 Reference value :  1.42501e-05
 Reference value :  1.42502e-05
 Reference value :  1.42502e-05
 Reference value :  1.42502e-05
 Reference value :  1.42502e-05
 Reference value :  1.42502e-05
 Reference value :  1.42502e-05
 Reference value :  1.42502e-05
 Reference value :  1.42503e-05
 Reference value :  1.42503e-05
 Reference value :  1.42504e-05
 Reference value :  1.42506e-05
 Reference value :  1.42510e-05
 Reference value :  1.42513e-05
 Reference value :  1.42518e-05
 Reference value :  1.42523e-05
 Reference value :  1.42530e-05
 Reference value :  1.42539e-05
 Reference value :  1.42546e-05
 Reference value :  1.42555e-05
 Reference value :  1.42563e-05
 Reference value :  1.42571e-05
 Reference value :  1.42580e-05
 Reference value :  1.42591e-05
 Reference value :  1.42603e-05
 Reference value :  1.42615e-05
 Reference value :  1.42633e-05
 Reference value :  1.42654e-05
 Reference value :  1.42685e-05
 Reference value :  1.42731e-05
 Reference value :  1.42822e-05
 Reference value :  1.43004e-05
 Reference value :  1.43354e-05
 Reference value :  1.43824e-05
 Reference value :  1.44331e-05
 Reference value :  1.44605e-05
 Reference value :  1.44802e-05
 Reference value :  1.45000e-05
 Reference value :  1.45000e-05
 Reference value :  1.45000e-05
 Reference value :  1.45001e-05
 Reference value :  1.45001e-05
 Reference value :  1.45001e-05
 Reference value :  1.45001e-05
 Reference value :  1.45001e-05
 Reference value :  1.45002e-05
 Reference value :  1.45002e-05
 Reference value :  1.45004e-05
 Reference value :  1.45006e-05
 Reference value :  1.45010e-05
 Reference value :  1.45015e-05
 Reference value :  1.45020e-05
 Reference value :  1.45025e-05
 Reference value :  1.45030e-05
 Reference value :  1.45036e-05
 Reference value :  1.45043e-05
 Reference value :  1.45050e-05
 Reference value :  1.45056e-05
 Reference value :  1.45063e-05
 Reference value :  1.45071e-05
 Reference value :  1.45078e-05
 Reference value :  1.45086e-05
 Reference value :  1.45098e-05
 Reference value :  1.45109e-05
 Reference value :  1.45130e-05
 Reference value :  1.45152e-05
 Reference value :  1.45168e-05
 Reference value :  1.45187e-05
 Reference value :  1.45200e-05
 Reference value :  1.45212e-05
 Reference value :  1.45222e-05
 Reference value :  1.45235e-05
 Reference value :  1.45248e-05
 Reference value :  1.45263e-05
 Reference value :  1.45283e-05
 Reference value :  1.45313e-05
 Reference value :  1.45369e-05
 Reference value :  1.45425e-05
 Reference value :  1.45466e-05
 Reference value :  1.45508e-05
 Reference value :  1.45550e-05
 Reference value :  1.45597e-05
 Reference value :  1.45663e-05
 Reference value :  1.45736e-05
 Reference value :  1.45808e-05
 Reference value :  1.45893e-05
 Reference value :  1.46038e-05
 Reference value :  1.46220e-05
 Reference value :  1.46501e-05
 Reference value :  1.46906e-05
 Reference value :  1.47501e-05
 Reference value :  1.47501e-05
 Reference value :  1.47501e-05
 Reference value :  1.47502e-05
 Reference value :  1.47502e-05
 Reference value :  1.47502e-05
 Reference value :  1.47502e-05
 Reference value :  1.47502e-05
 Reference value :  1.47502e-05
 Reference value :  1.47502e-05
 Reference value :  1.47503e-05
 Reference value :  1.47503e-05
 Reference value :  1.47504e-05
 Reference value :  1.47506e-05
 Reference value :  1.47510e-05
 Reference value :  1.47514e-05
 Reference value :  1.47518e-05
 Reference value :  1.47524e-05
 Reference value :  1.47531e-05
 Reference value :  1.47539e-05
 Reference value :  1.47546e-05
 Reference value :  1.47554e-05
 Reference value :  1.47562e-05
 Reference value :  1.47570e-05
 Reference value :  1.47582e-05
 Reference value :  1.47595e-05
 Reference value :  1.47615e-05
 Reference value :  1.47641e-05
 Reference value :  1.47677e-05
 Reference value :  1.47749e-05
 Reference value :  1.47879e-05
 Reference value :  1.48105e-05
 Reference value :  1.48543e-05
 Reference value :  1.49421e-05
 Reference value :  1.50000e-05
 Reference value :  1.50000e-05
 Reference value :  1.50000e-05
 Reference value :  1.50001e-05
 Reference value :  1.50001e-05
 Reference value :  1.50001e-05
 Reference value :  1.50001e-05
 Reference value :  1.50001e-05
 Reference value :  1.50002e-05
 Reference value :  1.50002e-05
 Reference value :  1.50004e-05
 Reference value :  1.50006e-05
 Reference value :  1.50010e-05
 Reference value :  1.50015e-05
 Reference value :  1.50020e-05
 Reference value :  1.50025e-05
 Reference value :  1.50030e-05
 Reference value :  1.50036e-05
 Reference value :  1.50042e-05
 Reference value :  1.50050e-05
 Reference value :  1.50057e-05
 Reference value :  1.50068e-05
 Reference value :  1.50078e-05
 Reference value :  1.50093e-05
 Reference value :  1.50103e-05
 Reference value :  1.50114e-05
 Reference value :  1.50124e-05
 Reference value :  1.50136e-05
 Reference value :  1.50148e-05
 Reference value :  1.50163e-05
 Reference value :  1.50191e-05
 Reference value :  1.50235e-05
 Reference value :  1.50322e-05
 Reference value :  1.50498e-05
 Reference value :  1.50841e-05
 Reference value :  1.51527e-05
 Reference value :  1.52501e-05
 Reference value :  1.52501e-05
 Reference value :  1.52501e-05
 Reference value :  1.52502e-05
 Reference value :  1.52502e-05
 Reference value :  1.52502e-05
 Reference value :  1.52502e-05
 Reference value :  1.52502e-05
 Reference value :  1.52502e-05
 Reference value :  1.52502e-05
 Reference value :  1.52503e-05
 Reference value :  1.52503e-05
 Reference value :  1.52504e-05
 Reference value :  1.52506e-05
 Reference value :  1.52510e-05
 Reference value :  1.52513e-05
 Reference value :  1.52518e-05
 Reference value :  1.52523e-05
 Reference value :  1.52530e-05
 Reference value :  1.52539e-05
 Reference value :  1.52546e-05
 Reference value :  1.52555e-05
 Reference value :  1.52564e-05
 Reference value :  1.52572e-05
 Reference value :  1.52581e-05
 Reference value :  1.52591e-05
 Reference value :  1.52603e-05
 Reference value :  1.52616e-05
 Reference value :  1.52634e-05
 Reference value :  1.52655e-05
 Reference value :  1.52686e-05
 Reference value :  1.52733e-05
 Reference value :  1.52826e-05
 Reference value :  1.53013e-05
 Reference value :  1.53369e-05
 Reference value :  1.54081e-05
 Reference value :  1.55000e-05
 Reference value :  1.55013e-05
 Reference value :  1.55039e-05
 Reference value :  1.55040e-05
 Reference value :  1.55043e-05
 Reference value :  1.55048e-05
 Reference value :  1.55052e-05
 Reference value :  1.55058e-05
 Reference value :  1.55065e-05
 Reference value :  1.55073e-05
 Reference value :  1.55081e-05
 Reference value :  1.55088e-05
 Reference value :  1.55096e-05
 Reference value :  1.55106e-05
 Reference value :  1.55122e-05
 Reference value :  1.55134e-05
 Reference value :  1.55146e-05
 Reference value :  1.55159e-05
 Reference value :  1.55172e-05
 Reference value :  1.55185e-05
 Reference value :  1.55196e-05
 Reference value :  1.55208e-05
 Reference value :  1.55221e-05
 Reference value :  1.55232e-05
 Reference value :  1.55244e-05
 Reference value :  1.55257e-05
[...]
 Reference value :  1.65769e-04
 Reference value :  1.65777e-04
 Reference value :  1.65790e-04
 Reference value :  1.65814e-04
 Reference value :  1.65858e-04
 Reference value :  1.65946e-04
 Reference value :  1.66000e-04
 Reference value :  1.66000e-04
 Reference value :  1.66000e-04
 Reference value :  1.66000e-04
 Reference value :  1.66000e-04
 Reference value :  1.66000e-04
 Reference value :  1.66000e-04
 Reference value :  1.66000e-04
 Reference value :  1.66000e-04
 Reference value :  1.66000e-04
 Reference value :  1.66000e-04
 Reference value :  1.66001e-04
 Reference value :  1.66001e-04
 Reference value :  1.66001e-04
 Reference value :  1.66002e-04
 Reference value :  1.66002e-04
 Reference value :  1.66003e-04
 Reference value :  1.66004e-04
 Reference value :  1.66004e-04
 Reference value :  1.66005e-04
 Reference value :  1.66006e-04
 Reference value :  1.66007e-04
 Reference value :  1.66008e-04
 Reference value :  1.66009e-04
 Reference value :  1.66010e-04
 Reference value :  1.66011e-04
 Reference value :  1.66012e-04
 Reference value :  1.66013e-04
 Reference value :  1.66015e-04
 Reference value :  1.66016e-04
 Reference value :  1.66019e-04
 Reference value :  1.66024e-04
 Reference value :  1.66033e-04
 Reference value :  1.66052e-04
 Reference value :  1.66091e-04
 Reference value :  1.66167e-04
 Reference value :  1.66250e-04
 Reference value :  1.66250e-04
 Reference value :  1.66250e-04
 Reference value :  1.66250e-04
 Reference value :  1.66250e-04
 Reference value :  1.66250e-04
 Reference value :  1.66250e-04
 Reference value :  1.66250e-04
 Reference value :  1.66250e-04
 Reference value :  1.66250e-04
 Reference value :  1.66250e-04
 Reference value :  1.66250e-04
 Reference value :  1.66250e-04
 Reference value :  1.66251e-04
 Reference value :  1.66251e-04
 Reference value :  1.66251e-04
 Reference value :  1.66252e-04
 Reference value :  1.66252e-04
 Reference value :  1.66253e-04
 Reference value :  1.66254e-04
 Reference value :  1.66255e-04
 Reference value :  1.66256e-04
 Reference value :  1.66256e-04
 Reference value :  1.66257e-04
 Reference value :  1.66258e-04
 Reference value :  1.66259e-04
 Reference value :  1.66260e-04
 Reference value :  1.66262e-04
 Reference value :  1.66263e-04
 Reference value :  1.66265e-04
 Reference value :  1.66269e-04
 Reference value :  1.66273e-04
 Reference value :  1.66282e-04
 Reference value :  1.66301e-04
 Reference value :  1.66336e-04
 Reference value :  1.66407e-04
 Reference value :  1.66500e-04
 Reference value :  1.66500e-04
 Reference value :  1.66500e-04
 Reference value :  1.66500e-04
 Reference value :  1.66500e-04
 Reference value :  1.66500e-04
 Reference value :  1.66500e-04
 Reference value :  1.66500e-04
 Reference value :  1.66500e-04
 Reference value :  1.66500e-04
 Reference value :  1.66500e-04
 Reference value :  1.66501e-04
 Reference value :  1.66501e-04
 Reference value :  1.66501e-04
 Reference value :  1.66502e-04
 Reference value :  1.66502e-04
 Reference value :  1.66503e-04
 Reference value :  1.66504e-04
 Reference value :  1.66504e-04
 Reference value :  1.66505e-04
 Reference value :  1.66506e-04
 Reference value :  1.66506e-04
 Reference value :  1.66507e-04
 Reference value :  1.66508e-04
 Reference value :  1.66508e-04
 Reference value :  1.66509e-04
 Reference value :  1.66510e-04
 Reference value :  1.66512e-04
 Reference value :  1.66513e-04
 Reference value :  1.66514e-04
 Reference value :  1.66515e-04
 Reference value :  1.66517e-04
 Reference value :  1.66518e-04
 Reference value :  1.66520e-04
 Reference value :  1.66521e-04
 Reference value :  1.66522e-04
 Reference value :  1.66523e-04
 Reference value :  1.66525e-04
 Reference value :  1.66526e-04
 Reference value :  1.66529e-04
 Reference value :  1.66532e-04
 Reference value :  1.66538e-04
 Reference value :  1.66549e-04
 Reference value :  1.66559e-04
 Reference value :  1.66567e-04
 Reference value :  1.66575e-04
 Reference value :  1.66585e-04
 Reference value :  1.66601e-04
 Reference value :  1.66624e-04
 Reference value :  1.66669e-04
 Reference value :  1.66718e-04
 Reference value :  1.66750e-04
 Reference value :  1.66750e-04
 Reference value :  1.66750e-04
 Reference value :  1.66750e-04
 Reference value :  1.66750e-04
 Reference value :  1.66750e-04
 Reference value :  1.66750e-04
 Reference value :  1.66750e-04
 Reference value :  1.66750e-04
 Reference value :  1.66750e-04
 Reference value :  1.66750e-04
 Reference value :  1.66750e-04
 Reference value :  1.66750e-04
 Reference value :  1.66751e-04
 Reference value :  1.66751e-04
 Reference value :  1.66751e-04
 Reference value :  1.66752e-04
 Reference value :  1.66752e-04
 Reference value :  1.66753e-04
 Reference value :  1.66754e-04
 Reference value :  1.66755e-04
 Reference value :  1.66755e-04
 Reference value :  1.66756e-04
 Reference value :  1.66757e-04
 Reference value :  1.66759e-04
 Reference value :  1.66760e-04
 Reference value :  1.66762e-04
 Reference value :  1.66765e-04
 Reference value :  1.66769e-04
 Reference value :  1.66777e-04
 Reference value :  1.66790e-04
 Reference value :  1.66814e-04
 Reference value :  1.66857e-04
 Reference value :  1.66943e-04
 Reference value :  1.67000e-04
 Reference value :  1.67000e-04
 Reference value :  1.67000e-04
 Reference value :  1.67000e-04
 Reference value :  1.67000e-04
 Reference value :  1.67000e-04
 Reference value :  1.67000e-04
 Reference value :  1.67000e-04
 Reference value :  1.67000e-04
 Reference value :  1.67000e-04
 Reference value :  1.67000e-04
 Reference value :  1.67001e-04
 Reference value :  1.67001e-04
 Reference value :  1.67001e-04
 Reference value :  1.67002e-04
 Reference value :  1.67002e-04
 Reference value :  1.67003e-04
 Reference value :  1.67004e-04
 Reference value :  1.67004e-04
 Reference value :  1.67005e-04
 Reference value :  1.67006e-04
 Reference value :  1.67007e-04
 Reference value :  1.67008e-04
 Reference value :  1.67009e-04
 Reference value :  1.67010e-04
 Reference value :  1.67011e-04
 Reference value :  1.67012e-04
 Reference value :  1.67014e-04
 Reference value :  1.67015e-04
 Reference value :  1.67016e-04
 Reference value :  1.67019e-04
 Reference value :  1.67023e-04
 Reference value :  1.67032e-04
 Reference value :  1.67049e-04
 Reference value :  1.67083e-04
 Reference value :  1.67150e-04
 Reference value :  1.67250e-04
 Reference value :  1.67250e-04
 Reference value :  1.67250e-04
 Reference value :  1.67250e-04
 Reference value :  1.67250e-04
 Reference value :  1.67250e-04
 Reference value :  1.67250e-04
 Reference value :  1.67250e-04
 Reference value :  1.67250e-04
 Reference value :  1.67250e-04
 Reference value :  1.67250e-04
 Reference value :  1.67250e-04
 Reference value :  1.67250e-04
 Reference value :  1.67251e-04
 Reference value :  1.67251e-04
 Reference value :  1.67251e-04
 Reference value :  1.67252e-04
 Reference value :  1.67252e-04
 Reference value :  1.67253e-04
 Reference value :  1.67254e-04
 Reference value :  1.67255e-04
 Reference value :  1.67256e-04
 Reference value :  1.67256e-04
 Reference value :  1.67257e-04
 Reference value :  1.67258e-04
 Reference value :  1.67259e-04
 Reference value :  1.67260e-04
 Reference value :  1.67262e-04
 Reference value :  1.67263e-04
 Reference value :  1.67265e-04
 Reference value :  1.67269e-04
 Reference value :  1.67273e-04
 Reference value :  1.67283e-04
 Reference value :  1.67301e-04
 Reference value :  1.67337e-04
 Reference value :  1.67409e-04
 Reference value :  1.67500e-04
 Reference value :  1.67500e-04
 Reference value :  1.67500e-04
 Reference value :  1.67500e-04
 Reference value :  1.67500e-04
 Reference value :  1.67500e-04
 Reference value :  1.67500e-04
 Reference value :  1.67500e-04
 Reference value :  1.67500e-04
 Reference value :  1.67500e-04
 Reference value :  1.67500e-04
 Reference value :  1.67501e-04
 Reference value :  1.67501e-04
 Reference value :  1.67501e-04
 Reference value :  1.67502e-04
 Reference value :  1.67502e-04
 Reference value :  1.67503e-04
 Reference value :  1.67504e-04
 Reference value :  1.67504e-04
 Reference value :  1.67505e-04
 Reference value :  1.67506e-04
 Reference value :  1.67506e-04
 Reference value :  1.67507e-04
 Reference value :  1.67508e-04
 Reference value :  1.67508e-04
 Reference value :  1.67509e-04
 Reference value :  1.67511e-04
 Reference value :  1.67512e-04
 Reference value :  1.67513e-04
 Reference value :  1.67514e-04
 Reference value :  1.67516e-04
 Reference value :  1.67517e-04
 Reference value :  1.67518e-04
 Reference value :  1.67519e-04
 Reference value :  1.67520e-04
 Reference value :  1.67521e-04
 Reference value :  1.67522e-04
 Reference value :  1.67523e-04
 Reference value :  1.67525e-04
 Reference value :  1.67526e-04
 Reference value :  1.67528e-04
 Reference value :  1.67531e-04
 Reference value :  1.67536e-04
 Reference value :  1.67540e-04
 Reference value :  1.67545e-04
 Reference value :  1.67550e-04
 Reference value :  1.67557e-04
 Reference value :  1.67568e-04
 Reference value :  1.67587e-04
 Reference value :  1.67622e-04
 Reference value :  1.67692e-04
 Reference value :  1.67750e-04
 Reference value :  1.67750e-04
 Reference value :  1.67750e-04
 Reference value :  1.67750e-04
 Reference value :  1.67750e-04
 Reference value :  1.67750e-04
 Reference value :  1.67750e-04
 Reference value :  1.67750e-04
 Reference value :  1.67750e-04
 Reference value :  1.67750e-04
 Reference value :  1.67750e-04
 Reference value :  1.67750e-04
 Reference value :  1.67750e-04
 Reference value :  1.67751e-04
 Reference value :  1.67751e-04
 Reference value :  1.67751e-04
 Reference value :  1.67752e-04
 Reference value :  1.67752e-04
 Reference value :  1.67753e-04
 Reference value :  1.67754e-04
 Reference value :  1.67755e-04
 Reference value :  1.67755e-04
 Reference value :  1.67756e-04
 Reference value :  1.67757e-04
 Reference value :  1.67759e-04
 Reference value :  1.67760e-04
 Reference value :  1.67762e-04
 Reference value :  1.67765e-04
 Reference value :  1.67769e-04
 Reference value :  1.67777e-04
 Reference value :  1.67790e-04
 Reference value :  1.67814e-04
 Reference value :  1.67858e-04
 Reference value :  1.67940e-04
 Reference value :  1.68000e-04
 Reference value :  1.68000e-04
 Reference value :  1.68000e-04
 Reference value :  1.68000e-04
 Reference value :  1.68000e-04
 Reference value :  1.68000e-04
 Reference value :  1.68000e-04
 Reference value :  1.68000e-04
 Reference value :  1.68000e-04
 Reference value :  1.68000e-04
 Reference value :  1.68000e-04
 Reference value :  1.68001e-04
 Reference value :  1.68001e-04
 Reference value :  1.68001e-04
 Reference value :  1.68002e-04
 Reference value :  1.68002e-04
 Reference value :  1.68003e-04
 Reference value :  1.68004e-04
 Reference value :  1.68004e-04
 Reference value :  1.68005e-04
 Reference value :  1.68006e-04
 Reference value :  1.68007e-04
 Reference value :  1.68008e-04
 Reference value :  1.68009e-04
 Reference value :  1.68010e-04
 Reference value :  1.68011e-04
 Reference value :  1.68012e-04
 Reference value :  1.68014e-04
 Reference value :  1.68015e-04
 Reference value :  1.68016e-04
 Reference value :  1.68019e-04
 Reference value :  1.68024e-04
 Reference value :  1.68032e-04
 Reference value :  1.68050e-04
 Reference value :  1.68083e-04
 Reference value :  1.68150e-04
 Reference value :  1.68250e-04
 Reference value :  1.68250e-04
 Reference value :  1.68250e-04
 Reference value :  1.68250e-04
 Reference value :  1.68250e-04
 Reference value :  1.68250e-04
 Reference value :  1.68250e-04
 Reference value :  1.68250e-04
 Reference value :  1.68250e-04
 Reference value :  1.68250e-04
 Reference value :  1.68250e-04
 Reference value :  1.68250e-04
 Reference value :  1.68250e-04
 Reference value :  1.68251e-04
 Reference value :  1.68251e-04
 Reference value :  1.68251e-04
 Reference value :  1.68252e-04
 Reference value :  1.68252e-04
 Reference value :  1.68253e-04
 Reference value :  1.68254e-04
 Reference value :  1.68255e-04
 Reference value :  1.68256e-04
 Reference value :  1.68256e-04
 Reference value :  1.68257e-04
 Reference value :  1.68258e-04
 Reference value :  1.68259e-04
 Reference value :  1.68260e-04
 Reference value :  1.68262e-04
 Reference value :  1.68263e-04
 Reference value :  1.68265e-04
 Reference value :  1.68269e-04
 Reference value :  1.68273e-04
 Reference value :  1.68282e-04
 Reference value :  1.68301e-04
 Reference value :  1.68336e-04
 Reference value :  1.68406e-04
 Reference value :  1.68500e-04
 Reference value :  1.68500e-04
 Reference value :  1.68500e-04
 Reference value :  1.68500e-04
 Reference value :  1.68500e-04
 Reference value :  1.68500e-04
 Reference value :  1.68500e-04
 Reference value :  1.68500e-04
 Reference value :  1.68500e-04
 Reference value :  1.68500e-04
 Reference value :  1.68500e-04
 Reference value :  1.68501e-04
 Reference value :  1.68501e-04
 Reference value :  1.68501e-04
 Reference value :  1.68502e-04
 Reference value :  1.68502e-04
 Reference value :  1.68503e-04
 Reference value :  1.68504e-04
 Reference value :  1.68504e-04
 Reference value :  1.68505e-04
 Reference value :  1.68506e-04
 Reference value :  1.68506e-04
 Reference value :  1.68507e-04
 Reference value :  1.68508e-04
 Reference value :  1.68508e-04
 Reference value :  1.68509e-04
 Reference value :  1.68510e-04
 Reference value :  1.68512e-04
 Reference value :  1.68513e-04
 Reference value :  1.68514e-04
 Reference value :  1.68516e-04
 Reference value :  1.68517e-04
 Reference value :  1.68518e-04
 Reference value :  1.68519e-04
 Reference value :  1.68520e-04
 Reference value :  1.68522e-04
 Reference value :  1.68523e-04
 Reference value :  1.68524e-04
 Reference value :  1.68525e-04
 Reference value :  1.68527e-04
 Reference value :  1.68529e-04
 Reference value :  1.68532e-04
 Reference value :  1.68535e-04
 Reference value :  1.68541e-04
 Reference value :  1.68547e-04
 Reference value :  1.68559e-04
 Reference value :  1.68575e-04
 Reference value :  1.68608e-04
 Reference value :  1.68658e-04
 Reference value :  1.68706e-04
 Reference value :  1.68750e-04
 Reference value :  1.68750e-04
 Reference value :  1.68750e-04
 Reference value :  1.68750e-04
 Reference value :  1.68750e-04
 Reference value :  1.68750e-04
 Reference value :  1.68750e-04
 Reference value :  1.68750e-04
 Reference value :  1.68750e-04
 Reference value :  1.68750e-04
 Reference value :  1.68750e-04
 Reference value :  1.68750e-04
 Reference value :  1.68750e-04
 Reference value :  1.68751e-04
 Reference value :  1.68751e-04
 Reference value :  1.68751e-04
 Reference value :  1.68752e-04
 Reference value :  1.68752e-04
 Reference value :  1.68753e-04
 Reference value :  1.68754e-04
 Reference value :  1.68755e-04
 Reference value :  1.68755e-04
 Reference value :  1.68756e-04
 Reference value :  1.68757e-04
 Reference value :  1.68758e-04
 Reference value :  1.68759e-04
 Reference value :  1.68761e-04
 Reference value :  1.68764e-04
 Reference value :  1.68768e-04
 Reference value :  1.68773e-04
 Reference value :  1.68778e-04
 Reference value :  1.68788e-04
 Reference value :  1.68797e-04
 Reference value :  1.68815e-04
 Reference value :  1.68844e-04
 Reference value :  1.68877e-04
 Reference value :  1.68908e-04
 Reference value :  1.68947e-04
 Reference value :  1.69000e-04
 Reference value :  1.69000e-04
 Reference value :  1.69000e-04
 Reference value :  1.69000e-04
 Reference value :  1.69000e-04
 Reference value :  1.69000e-04
 Reference value :  1.69000e-04
 Reference value :  1.69000e-04
 Reference value :  1.69000e-04
 Reference value :  1.69000e-04
 Reference value :  1.69000e-04
 Reference value :  1.69001e-04
 Reference value :  1.69001e-04
 Reference value :  1.69001e-04
 Reference value :  1.69002e-04
 Reference value :  1.69002e-04
 Reference value :  1.69003e-04
 Reference value :  1.69004e-04
 Reference value :  1.69004e-04
 Reference value :  1.69005e-04
 Reference value :  1.69006e-04
 Reference value :  1.69007e-04
 Reference value :  1.69008e-04
 Reference value :  1.69009e-04
 Reference value :  1.69011e-04
 Reference value :  1.69012e-04
 Reference value :  1.69013e-04
 Reference value :  1.69014e-04
 Reference value :  1.69015e-04
 Reference value :  1.69017e-04
 Reference value :  1.69020e-04
 Reference value :  1.69024e-04
 Reference value :  1.69032e-04
 Reference value :  1.69049e-04
 Reference value :  1.69079e-04
 Reference value :  1.69139e-04
 Reference value :  1.69250e-04
 Reference value :  1.69250e-04
 Reference value :  1.69250e-04
 Reference value :  1.69250e-04
 Reference value :  1.69250e-04
 Reference value :  1.69250e-04
 Reference value :  1.69250e-04
 Reference value :  1.69250e-04
 Reference value :  1.69250e-04
 Reference value :  1.69250e-04
 Reference value :  1.69250e-04
 Reference value :  1.69250e-04
 Reference value :  1.69250e-04
 Reference value :  1.69251e-04
 Reference value :  1.69251e-04
 Reference value :  1.69251e-04
 Reference value :  1.69252e-04
 Reference value :  1.69252e-04
 Reference value :  1.69253e-04
 Reference value :  1.69254e-04
 Reference value :  1.69255e-04
 Reference value :  1.69255e-04
 Reference value :  1.69256e-04
 Reference value :  1.69257e-04
 Reference value :  1.69258e-04
 Reference value :  1.69259e-04
 Reference value :  1.69261e-04
 Reference value :  1.69263e-04
 Reference value :  1.69266e-04
 Reference value :  1.69272e-04
 Reference value :  1.69284e-04
 Reference value :  1.69305e-04
 Reference value :  1.69346e-04
 Reference value :  1.69429e-04
 Reference value :  1.69500e-04
 Reference value :  1.69500e-04
 Reference value :  1.69500e-04
 Reference value :  1.69500e-04
 Reference value :  1.69500e-04
 Reference value :  1.69500e-04
 Reference value :  1.69500e-04
 Reference value :  1.69500e-04
 Reference value :  1.69500e-04
 Reference value :  1.69500e-04
 Reference value :  1.69500e-04
 Reference value :  1.69501e-04
 Reference value :  1.69501e-04
 Reference value :  1.69501e-04
 Reference value :  1.69502e-04
 Reference value :  1.69502e-04
 Reference value :  1.69503e-04
 Reference value :  1.69504e-04
 Reference value :  1.69504e-04
 Reference value :  1.69505e-04
 Reference value :  1.69506e-04
 Reference value :  1.69507e-04
 Reference value :  1.69507e-04
 Reference value :  1.69508e-04
 Reference value :  1.69509e-04
 Reference value :  1.69510e-04
 Reference value :  1.69512e-04
 Reference value :  1.69514e-04
 Reference value :  1.69517e-04
 Reference value :  1.69518e-04
 Reference value :  1.69521e-04
 Reference value :  1.69523e-04
 Reference value :  1.69526e-04
 Reference value :  1.69530e-04
 Reference value :  1.69536e-04
 Reference value :  1.69545e-04
 Reference value :  1.69559e-04
 Reference value :  1.69582e-04
 Reference value :  1.69621e-04
 Reference value :  1.69698e-04
 Reference value :  1.69750e-04
 Reference value :  1.69750e-04
 Reference value :  1.69750e-04
 Reference value :  1.69750e-04
 Reference value :  1.69750e-04
 Reference value :  1.69750e-04
 Reference value :  1.69750e-04
 Reference value :  1.69750e-04
 Reference value :  1.69750e-04
 Reference value :  1.69750e-04
 Reference value :  1.69750e-04
 Reference value :  1.69750e-04
 Reference value :  1.69750e-04
 Reference value :  1.69751e-04
 Reference value :  1.69751e-04
 Reference value :  1.69751e-04
 Reference value :  1.69752e-04
 Reference value :  1.69752e-04
 Reference value :  1.69753e-04
 Reference value :  1.69754e-04
 Reference value :  1.69755e-04
 Reference value :  1.69756e-04
 Reference value :  1.69757e-04
 Reference value :  1.69759e-04
 Reference value :  1.69761e-04
 Reference value :  1.69763e-04
 Reference value :  1.69766e-04
 Reference value :  1.69771e-04
 Reference value :  1.69780e-04
 Reference value :  1.69798e-04
 Reference value :  1.69834e-04
 Reference value :  1.69907e-04
 Reference value :  1.70000e-04
No. of Data Rows : 26513
ngspice-44 done
