
Note: Compatibility modes selected: hs a


Circuit: ** sch_path: /home/ece/cace/sar-adc-using-sky130-pdk/runs/run_2025-09-13_02-12-45/parameters/sndr/run_1/sndr_enob_fom.sch

option SCALE: Scale is set to 1e-06 for instance and model parameters
option SCALE: Scale is set to 1e-06 for instance and model parameters
option SCALE: Scale is set to 1e-06 for instance and model parameters
option SCALE: Scale is set to 1e-06 for instance and model parameters
Doing analysis at TEMP = 27.000000 and TNOM = 27.000000

Using KLU as Direct Linear Solver
Operating point simulation skipped by 'uic',
  now using transient initial conditions.
 Reference value :  1.00000e-12
 Reference value :  1.19600e-12
 Reference value :  6.09885e-12
 Reference value :  5.28194e-11
 Reference value :  1.11019e-10
 Reference value :  2.98097e-10
 Reference value :  7.92160e-10
 Reference value :  2.24685e-09
 Reference value :  3.80667e-09
 Reference value :  5.85915e-09
 Reference value :  6.87045e-09
 Reference value :  8.61558e-09
 Reference value :  1.01316e-08
 Reference value :  1.16443e-08
 Reference value :  1.30722e-08
 Reference value :  1.75654e-08
 Reference value :  2.59103e-08
 Reference value :  3.43656e-08
 Reference value :  5.04620e-08
 Reference value :  9.81798e-08
 Reference value :  2.32422e-07
 Reference value :  2.50110e-07
 Reference value :  2.50170e-07
 Reference value :  2.50208e-07
 Reference value :  2.50253e-07
 Reference value :  2.50406e-07
 Reference value :  2.50749e-07
 Reference value :  2.51449e-07
 Reference value :  2.51921e-07
 Reference value :  2.53079e-07
 Reference value :  2.53953e-07
 Reference value :  2.54551e-07
 Reference value :  2.55242e-07
 Reference value :  2.56875e-07
 Reference value :  2.59265e-07
 Reference value :  2.63755e-07
 Reference value :  2.85816e-07
 Reference value :  3.94150e-07
 Reference value :  5.00010e-07
 Reference value :  5.00100e-07
 Reference value :  5.00220e-07
 Reference value :  5.01299e-07
 Reference value :  5.02767e-07
 Reference value :  5.04678e-07
 Reference value :  5.09179e-07
 Reference value :  5.13350e-07
 Reference value :  5.16416e-07
 Reference value :  5.33789e-07
 Reference value :  7.50100e-07
 Reference value :  7.50200e-07
 Reference value :  7.50319e-07
 Reference value :  7.51066e-07
 Reference value :  7.52558e-07
 Reference value :  7.54677e-07
 Reference value :  7.56988e-07
 Reference value :  7.65495e-07
 Reference value :  1.00000e-06
 Reference value :  1.00011e-06
 Reference value :  1.00035e-06
 Reference value :  1.00130e-06
 Reference value :  1.00224e-06
 Reference value :  1.00404e-06
 Reference value :  1.00521e-06
 Reference value :  1.00582e-06
 Reference value :  1.00710e-06
 Reference value :  1.01057e-06
 Reference value :  1.01401e-06
 Reference value :  1.01673e-06
 Reference value :  1.01912e-06
 Reference value :  1.02165e-06
 Reference value :  1.02882e-06
 Reference value :  1.05860e-06
 Reference value :  1.22169e-06
 Reference value :  1.25013e-06
 Reference value :  1.25020e-06
 Reference value :  1.25032e-06
 Reference value :  1.25106e-06
 Reference value :  1.25203e-06
 Reference value :  1.25406e-06
 Reference value :  1.25535e-06
 Reference value :  1.25689e-06
 Reference value :  1.26513e-06
 Reference value :  1.29955e-06
 Reference value :  1.50000e-06
 Reference value :  1.50007e-06
 Reference value :  1.50012e-06
 Reference value :  1.50035e-06
 Reference value :  1.50130e-06
 Reference value :  1.50224e-06
 Reference value :  1.50340e-06
 Reference value :  1.50464e-06
 Reference value :  1.50629e-06
 Reference value :  1.50826e-06
 Reference value :  1.51019e-06
 Reference value :  1.51236e-06
 Reference value :  1.53097e-06
 Reference value :  1.75010e-06
 Reference value :  1.75017e-06
 Reference value :  1.75022e-06
 Reference value :  1.75045e-06
 Reference value :  1.75106e-06
 Reference value :  1.75204e-06
 Reference value :  1.75406e-06
 Reference value :  1.75540e-06
 Reference value :  1.75697e-06
 Reference value :  1.76193e-06
 Reference value :  1.79989e-06
 Reference value :  2.00000e-06
 Reference value :  2.00007e-06
 Reference value :  2.00012e-06
 Reference value :  2.00035e-06
 Reference value :  2.00130e-06
 Reference value :  2.00224e-06
 Reference value :  2.00403e-06
 Reference value :  2.00458e-06
 Reference value :  2.00582e-06
 Reference value :  2.00711e-06
 Reference value :  2.01061e-06
 Reference value :  2.01401e-06
 Reference value :  2.01671e-06
 Reference value :  2.01909e-06
 Reference value :  2.02162e-06
 Reference value :  2.02869e-06
 Reference value :  2.04170e-06
 Reference value :  2.05675e-06
 Reference value :  2.06793e-06
 Reference value :  2.08197e-06
 Reference value :  2.11859e-06
 Reference value :  2.20966e-06
 Reference value :  2.25013e-06
 Reference value :  2.25020e-06
 Reference value :  2.25026e-06
 Reference value :  2.25070e-06
 Reference value :  2.25204e-06
 Reference value :  2.25403e-06
 Reference value :  2.25539e-06
 Reference value :  2.25719e-06
 Reference value :  2.26241e-06
 Reference value :  2.28417e-06
 Reference value :  2.49112e-06
 Reference value :  2.50003e-06
 Reference value :  2.50011e-06
 Reference value :  2.50022e-06
 Reference value :  2.50086e-06
 Reference value :  2.50177e-06
 Reference value :  2.50270e-06
 Reference value :  2.50405e-06
 Reference value :  2.50560e-06
 Reference value :  2.50753e-06
 Reference value :  2.50946e-06
 Reference value :  2.51157e-06
 Reference value :  2.51412e-06
 Reference value :  2.54286e-06
 Reference value :  2.72184e-06
 Reference value :  2.75013e-06
 Reference value :  2.75022e-06
 Reference value :  2.75070e-06
 Reference value :  2.75202e-06
 Reference value :  2.75326e-06
 Reference value :  2.75465e-06
 Reference value :  2.75604e-06
 Reference value :  2.75697e-06
 Reference value :  2.75885e-06
 Reference value :  2.76127e-06
 Reference value :  2.76551e-06
 Reference value :  2.77521e-06
 Reference value :  2.82161e-06
 Reference value :  3.00000e-06
 Reference value :  3.00007e-06
 Reference value :  3.00011e-06
 Reference value :  3.00016e-06
 Reference value :  3.00035e-06
 Reference value :  3.00086e-06
 Reference value :  3.00130e-06
 Reference value :  3.00224e-06
 Reference value :  3.00341e-06
 Reference value :  3.00403e-06
 Reference value :  3.00457e-06
 Reference value :  3.00583e-06
 Reference value :  3.00644e-06
 Reference value :  3.00801e-06
 Reference value :  3.01047e-06
 Reference value :  3.01145e-06
 Reference value :  3.01377e-06
 Reference value :  3.01613e-06
 Reference value :  3.01837e-06
 Reference value :  3.02087e-06
 Reference value :  3.02441e-06
 Reference value :  3.03125e-06
 Reference value :  3.04764e-06
 Reference value :  3.05543e-06
 Reference value :  3.06109e-06
 Reference value :  3.07020e-06
 Reference value :  3.07759e-06
 Reference value :  3.08603e-06
 Reference value :  3.09752e-06
 Reference value :  3.12816e-06
 Reference value :  3.16914e-06
 Reference value :  3.25010e-06
 Reference value :  3.25017e-06
 Reference value :  3.25022e-06
 Reference value :  3.25045e-06
 Reference value :  3.25152e-06
 Reference value :  3.25202e-06
 Reference value :  3.25326e-06
 Reference value :  3.25405e-06
 Reference value :  3.25465e-06
 Reference value :  3.25599e-06
 Reference value :  3.25686e-06
 Reference value :  3.25950e-06
 Reference value :  3.27058e-06
 Reference value :  3.29880e-06
 Reference value :  3.50000e-06
 Reference value :  3.50007e-06
 Reference value :  3.50011e-06
 Reference value :  3.50016e-06
 Reference value :  3.50035e-06
 Reference value :  3.50086e-06
 Reference value :  3.50130e-06
 Reference value :  3.50224e-06
 Reference value :  3.50340e-06
 Reference value :  3.50463e-06
 Reference value :  3.50628e-06
 Reference value :  3.50826e-06
 Reference value :  3.51019e-06
 Reference value :  3.51236e-06
 Reference value :  3.52121e-06
 Reference value :  3.66684e-06
 Reference value :  3.75017e-06
 Reference value :  3.75022e-06
 Reference value :  3.75045e-06
 Reference value :  3.75106e-06
 Reference value :  3.75203e-06
 Reference value :  3.75328e-06
 Reference value :  3.75406e-06
 Reference value :  3.75469e-06
 Reference value :  3.75609e-06
 Reference value :  3.75697e-06
 Reference value :  3.75965e-06
 Reference value :  3.76541e-06
 Reference value :  3.79954e-06
 Reference value :  3.98110e-06
 Reference value :  4.00003e-06
 Reference value :  4.00010e-06
 Reference value :  4.00012e-06
 Reference value :  4.00022e-06
 Reference value :  4.00052e-06
 Reference value :  4.00130e-06
 Reference value :  4.00224e-06
 Reference value :  4.00403e-06
 Reference value :  4.00458e-06
 Reference value :  4.00582e-06
 Reference value :  4.00800e-06
 Reference value :  4.01402e-06
 Reference value :  4.01797e-06
 Reference value :  4.02030e-06
 Reference value :  4.03413e-06
 Reference value :  4.04570e-06
 Reference value :  4.06013e-06
 Reference value :  4.07952e-06
 Reference value :  4.12655e-06
 Reference value :  4.25011e-06
 Reference value :  4.25020e-06
 Reference value :  4.25026e-06
 Reference value :  4.25070e-06
 Reference value :  4.25152e-06
 Reference value :  4.25254e-06
 Reference value :  4.25401e-06
 Reference value :  4.25532e-06
 Reference value :  4.25691e-06
 Reference value :  4.25960e-06
 Reference value :  4.27117e-06
 Reference value :  4.38784e-06
 Reference value :  4.50003e-06
 Reference value :  4.50011e-06
 Reference value :  4.50035e-06
 Reference value :  4.50130e-06
 Reference value :  4.50221e-06
 Reference value :  4.50332e-06
 Reference value :  4.50485e-06
 Reference value :  4.50674e-06
 Reference value :  4.50753e-06
 Reference value :  4.50946e-06
 Reference value :  4.51157e-06
 Reference value :  4.51277e-06
 Reference value :  4.52080e-06
 Reference value :  4.56726e-06
 Reference value :  4.75010e-06
 Reference value :  4.75017e-06
 Reference value :  4.75022e-06
 Reference value :  4.75045e-06
 Reference value :  4.75105e-06
 Reference value :  4.75202e-06
 Reference value :  4.75325e-06
 Reference value :  4.75464e-06
 Reference value :  4.75604e-06
 Reference value :  4.75786e-06
 Reference value :  4.75995e-06
 Reference value :  4.76548e-06
 Reference value :  4.78388e-06
 Reference value :  4.91730e-06
 Reference value :  5.00003e-06
 Reference value :  5.00011e-06
 Reference value :  5.00022e-06
 Reference value :  5.00086e-06
 Reference value :  5.00176e-06
 Reference value :  5.00224e-06
 Reference value :  5.00403e-06
 Reference value :  5.00457e-06
 Reference value :  5.00583e-06
 Reference value :  5.00712e-06
 Reference value :  5.01047e-06
 Reference value :  5.01146e-06
 Reference value :  5.01378e-06
 Reference value :  5.01618e-06
 Reference value :  5.01849e-06
 Reference value :  5.02111e-06
 Reference value :  5.02734e-06
 Reference value :  5.03012e-06
 Reference value :  5.03227e-06
 Reference value :  5.03618e-06
 Reference value :  5.04368e-06
 Reference value :  5.07457e-06
 Reference value :  5.19477e-06
 Reference value :  5.25017e-06
 Reference value :  5.25026e-06
 Reference value :  5.25070e-06
 Reference value :  5.25152e-06
 Reference value :  5.25254e-06
 Reference value :  5.25405e-06
 Reference value :  5.25532e-06
 Reference value :  5.25686e-06
 Reference value :  5.26168e-06
 Reference value :  5.29852e-06
 Reference value :  5.50000e-06
 Reference value :  5.50007e-06
 Reference value :  5.50011e-06
 Reference value :  5.50022e-06
 Reference value :  5.50052e-06
 Reference value :  5.50130e-06
 Reference value :  5.50224e-06
 Reference value :  5.50340e-06
 Reference value :  5.50463e-06
 Reference value :  5.50628e-06
 Reference value :  5.50826e-06
 Reference value :  5.51019e-06
 Reference value :  5.51237e-06
 Reference value :  5.52121e-06
 Reference value :  5.58911e-06
 Reference value :  5.75010e-06
 Reference value :  5.75013e-06
 Reference value :  5.75021e-06
 Reference value :  5.75032e-06
 Reference value :  5.75070e-06
 Reference value :  5.75153e-06
 Reference value :  5.75203e-06
 Reference value :  5.75328e-06
 Reference value :  5.75468e-06
 Reference value :  5.75609e-06
 Reference value :  5.75793e-06
 Reference value :  5.76552e-06
 Reference value :  5.83143e-06
 Reference value :  6.00001e-06
 Reference value :  6.00010e-06
 Reference value :  6.00035e-06
 Reference value :  6.00130e-06
 Reference value :  6.00224e-06
 Reference value :  6.00340e-06
 Reference value :  6.00458e-06
 Reference value :  6.00582e-06
 Reference value :  6.00643e-06
 Reference value :  6.00801e-06
 Reference value :  6.01062e-06
 Reference value :  6.01402e-06
 Reference value :  6.01536e-06
 Reference value :  6.01796e-06
 Reference value :  6.01907e-06
 Reference value :  6.02342e-06
 Reference value :  6.03381e-06
 Reference value :  6.03867e-06
 Reference value :  6.05398e-06
 Reference value :  6.07951e-06
 Reference value :  6.24742e-06
 Reference value :  6.25017e-06
 Reference value :  6.25026e-06
 Reference value :  6.25070e-06
 Reference value :  6.25152e-06
 Reference value :  6.25202e-06
 Reference value :  6.25326e-06
 Reference value :  6.25464e-06
 Reference value :  6.25690e-06
 Reference value :  6.25958e-06
 Reference value :  6.28160e-06
 Reference value :  6.49773e-06
 Reference value :  6.50003e-06
 Reference value :  6.50011e-06
 Reference value :  6.50035e-06
 Reference value :  6.50130e-06
 Reference value :  6.50221e-06
 Reference value :  6.50405e-06
 Reference value :  6.50674e-06
 Reference value :  6.50753e-06
 Reference value :  6.50946e-06
 Reference value :  6.51277e-06
 Reference value :  6.52076e-06
 Reference value :  6.61558e-06
 Reference value :  6.75013e-06
 Reference value :  6.75021e-06
 Reference value :  6.75045e-06
 Reference value :  6.75152e-06
 Reference value :  6.75254e-06
 Reference value :  6.75403e-06
 Reference value :  6.75532e-06
 Reference value :  6.75695e-06
 Reference value :  6.75883e-06
 Reference value :  6.76316e-06
 Reference value :  6.78386e-06
 Reference value :  6.91746e-06
 Reference value :  7.00003e-06
 Reference value :  7.00011e-06
 Reference value :  7.00022e-06
 Reference value :  7.00052e-06
 Reference value :  7.00130e-06
 Reference value :  7.00224e-06
 Reference value :  7.00340e-06
 Reference value :  7.00457e-06
 Reference value :  7.00583e-06
 Reference value :  7.00712e-06
 Reference value :  7.01046e-06
 Reference value :  7.01258e-06
 Reference value :  7.01509e-06
 Reference value :  7.01867e-06
 Reference value :  7.02088e-06
 Reference value :  7.02344e-06
 Reference value :  7.04111e-06
 Reference value :  7.20530e-06
 Reference value :  7.25013e-06
 Reference value :  7.25021e-06
 Reference value :  7.25045e-06
 Reference value :  7.25152e-06
 Reference value :  7.25254e-06
 Reference value :  7.25464e-06
 Reference value :  7.25685e-06
 Reference value :  7.27051e-06
 Reference value :  7.38658e-06
 Reference value :  7.50007e-06
 Reference value :  7.50016e-06
 Reference value :  7.50052e-06
 Reference value :  7.50130e-06
 Reference value :  7.50224e-06
 Reference value :  7.50340e-06
 Reference value :  7.50463e-06
 Reference value :  7.50730e-06
 Reference value :  7.51019e-06
 Reference value :  7.51363e-06
 Reference value :  7.66668e-06
 Reference value :  7.75017e-06
 Reference value :  7.75032e-06
 Reference value :  7.75153e-06
 Reference value :  7.75328e-06
 Reference value :  7.75537e-06
 Reference value :  7.75967e-06
 Reference value :  7.79971e-06
 Reference value :  8.00001e-06
 Reference value :  8.00012e-06
 Reference value :  8.00086e-06
 Reference value :  8.00176e-06
 Reference value :  8.00340e-06
 Reference value :  8.00458e-06
 Reference value :  8.00582e-06
 Reference value :  8.00711e-06
 Reference value :  8.01112e-06
 Reference value :  8.05048e-06
 Reference value :  8.25013e-06
 Reference value :  8.25022e-06
 Reference value :  8.25070e-06
 Reference value :  8.25202e-06
 Reference value :  8.25421e-06
 Reference value :  8.25722e-06
 Reference value :  8.26620e-06
 Reference value :  8.35499e-06
 Reference value :  8.50003e-06
 Reference value :  8.50012e-06
 Reference value :  8.50060e-06
 Reference value :  8.50151e-06
 Reference value :  8.50256e-06
 Reference value :  8.50374e-06
 Reference value :  8.50569e-06
 Reference value :  8.50781e-06
 Reference value :  8.52128e-06
 Reference value :  8.52724e-06
 Reference value :  8.53291e-06
 Reference value :  8.53679e-06
 Reference value :  8.54400e-06
 Reference value :  8.54689e-06
 Reference value :  8.55176e-06
 Reference value :  8.56358e-06
 Reference value :  8.60944e-06
 Reference value :  8.75010e-06
 Reference value :  8.75017e-06
 Reference value :  8.75026e-06
 Reference value :  8.75070e-06
 Reference value :  8.75152e-06
 Reference value :  8.75254e-06
 Reference value :  8.75404e-06
 Reference value :  8.75532e-06
 Reference value :  8.75681e-06
 Reference value :  8.76155e-06
 Reference value :  8.79752e-06
 Reference value :  9.00000e-06
 Reference value :  9.00007e-06
 Reference value :  9.00012e-06
 Reference value :  9.00035e-06
 Reference value :  9.00130e-06
 Reference value :  9.00277e-06
 Reference value :  9.00461e-06
 Reference value :  9.00739e-06
 Reference value :  9.00877e-06
 Reference value :  9.01311e-06
 Reference value :  9.01643e-06
 Reference value :  9.02279e-06
 Reference value :  9.06268e-06
 Reference value :  9.25010e-06
 Reference value :  9.25017e-06
 Reference value :  9.25022e-06
 Reference value :  9.25070e-06
 Reference value :  9.25152e-06
 Reference value :  9.25254e-06
 Reference value :  9.25403e-06
 Reference value :  9.25532e-06
 Reference value :  9.25789e-06
 Reference value :  9.26538e-06
 Reference value :  9.33156e-06
 Reference value :  9.50001e-06
 Reference value :  9.50010e-06
 Reference value :  9.50022e-06
 Reference value :  9.50086e-06
 Reference value :  9.50130e-06
 Reference value :  9.50224e-06
 Reference value :  9.50341e-06
 Reference value :  9.50458e-06
 Reference value :  9.50582e-06
 Reference value :  9.50642e-06
 Reference value :  9.50799e-06
 Reference value :  9.51058e-06
 Reference value :  9.51401e-06
 Reference value :  9.51537e-06
 Reference value :  9.51799e-06
 Reference value :  9.51911e-06
 Reference value :  9.52167e-06
 Reference value :  9.52541e-06
 Reference value :  9.54270e-06
 Reference value :  9.63053e-06
 Reference value :  9.75011e-06
 Reference value :  9.75020e-06
 Reference value :  9.75026e-06
 Reference value :  9.75070e-06
 Reference value :  9.75152e-06
 Reference value :  9.75254e-06
 Reference value :  9.75405e-06
 Reference value :  9.75533e-06
 Reference value :  9.75687e-06
 Reference value :  9.75951e-06
 Reference value :  9.77066e-06
 Reference value :  9.83057e-06
 Reference value :  1.00000e-05
 Reference value :  1.00000e-05
 Reference value :  1.00001e-05
 Reference value :  1.00002e-05
 Reference value :  1.00003e-05
 Reference value :  1.00009e-05
 Reference value :  1.00013e-05
 Reference value :  1.00022e-05
 Reference value :  1.00034e-05
 Reference value :  1.00046e-05
 Reference value :  1.00063e-05
 Reference value :  1.00083e-05
 Reference value :  1.00102e-05
 Reference value :  1.00124e-05
 Reference value :  1.00212e-05
 Reference value :  1.01671e-05
 Reference value :  1.02501e-05
 Reference value :  1.02502e-05
 Reference value :  1.02503e-05
 Reference value :  1.02511e-05
 Reference value :  1.02520e-05
 Reference value :  1.02533e-05
 Reference value :  1.02547e-05
 Reference value :  1.02561e-05
 Reference value :  1.02579e-05
 Reference value :  1.02620e-05
 Reference value :  1.02821e-05
 Reference value :  1.03847e-05
 Reference value :  1.05000e-05
 Reference value :  1.05001e-05
 Reference value :  1.05001e-05
 Reference value :  1.05003e-05
 Reference value :  1.05013e-05
 Reference value :  1.05022e-05
 Reference value :  1.05034e-05
 Reference value :  1.05046e-05
 Reference value :  1.05058e-05
 Reference value :  1.05064e-05
 Reference value :  1.05090e-05
 Reference value :  1.05126e-05
 Reference value :  1.05140e-05
 Reference value :  1.05167e-05
 Reference value :  1.05191e-05
 Reference value :  1.05216e-05
 Reference value :  1.05341e-05
 Reference value :  1.05468e-05
 Reference value :  1.05546e-05
 Reference value :  1.05699e-05
 Reference value :  1.05824e-05
 Reference value :  1.06167e-05
 Reference value :  1.07501e-05
 Reference value :  1.07502e-05
 Reference value :  1.07503e-05
 Reference value :  1.07511e-05
 Reference value :  1.07520e-05
 Reference value :  1.07540e-05
 Reference value :  1.07554e-05
 Reference value :  1.07571e-05
 Reference value :  1.07659e-05
 Reference value :  1.08879e-05
 Reference value :  1.10001e-05
 Reference value :  1.10002e-05
 Reference value :  1.10013e-05
 Reference value :  1.10027e-05
 Reference value :  1.10049e-05
 Reference value :  1.10075e-05
 Reference value :  1.10095e-05
 Reference value :  1.10116e-05
 Reference value :  1.10128e-05
 Reference value :  1.10283e-05
 Reference value :  1.11148e-05
 Reference value :  1.12501e-05
 Reference value :  1.12502e-05
 Reference value :  1.12503e-05
 Reference value :  1.12507e-05
 Reference value :  1.12515e-05
 Reference value :  1.12520e-05
 Reference value :  1.12533e-05
 Reference value :  1.12546e-05
 Reference value :  1.12560e-05
 Reference value :  1.12569e-05
 Reference value :  1.12588e-05
 Reference value :  1.12632e-05
 Reference value :  1.12839e-05
 Reference value :  1.13582e-05
 Reference value :  1.15000e-05
 Reference value :  1.15001e-05
 Reference value :  1.15001e-05
 Reference value :  1.15003e-05
 Reference value :  1.15013e-05
 Reference value :  1.15022e-05
 Reference value :  1.15034e-05
 Reference value :  1.15046e-05
 Reference value :  1.15058e-05
 Reference value :  1.15071e-05
 Reference value :  1.15105e-05
 Reference value :  1.15115e-05
 Reference value :  1.15138e-05
 Reference value :  1.15163e-05
 Reference value :  1.15185e-05
 Reference value :  1.15211e-05
 Reference value :  1.15276e-05
 Reference value :  1.15477e-05
 Reference value :  1.15587e-05
 Reference value :  1.15714e-05
 Reference value :  1.16051e-05
 Reference value :  1.16862e-05
 Reference value :  1.17501e-05
 Reference value :  1.17502e-05
 Reference value :  1.17502e-05
 Reference value :  1.17504e-05
 Reference value :  1.17515e-05
 Reference value :  1.17526e-05
 Reference value :  1.17541e-05
 Reference value :  1.17554e-05
 Reference value :  1.17569e-05
 Reference value :  1.17595e-05
 Reference value :  1.17709e-05
 Reference value :  1.17987e-05
 Reference value :  1.18849e-05
 Reference value :  1.20000e-05
 Reference value :  1.20001e-05
 Reference value :  1.20002e-05
 Reference value :  1.20005e-05
 Reference value :  1.20013e-05
 Reference value :  1.20022e-05
 Reference value :  1.20040e-05
 Reference value :  1.20053e-05
 Reference value :  1.20073e-05
 Reference value :  1.20093e-05
 Reference value :  1.20112e-05
 Reference value :  1.20136e-05
 Reference value :  1.20309e-05
 Reference value :  1.21666e-05
 Reference value :  1.22501e-05
 Reference value :  1.22502e-05
 Reference value :  1.22503e-05
 Reference value :  1.22507e-05
 Reference value :  1.22520e-05
 Reference value :  1.22541e-05
 Reference value :  1.22547e-05
 Reference value :  1.22561e-05
 Reference value :  1.22597e-05
 Reference value :  1.22715e-05
 Reference value :  1.23847e-05
 Reference value :  1.25000e-05
 Reference value :  1.25001e-05
 Reference value :  1.25003e-05
 Reference value :  1.25013e-05
 Reference value :  1.25022e-05
 Reference value :  1.25040e-05
 Reference value :  1.25052e-05
 Reference value :  1.25064e-05
 Reference value :  1.25080e-05
 Reference value :  1.25126e-05
 Reference value :  1.25140e-05
 Reference value :  1.25154e-05
 Reference value :  1.25180e-05
 Reference value :  1.25191e-05
 Reference value :  1.25216e-05
 Reference value :  1.25286e-05
 Reference value :  1.25397e-05
 Reference value :  1.25508e-05
 Reference value :  1.25616e-05
 Reference value :  1.25810e-05
 Reference value :  1.26329e-05
 Reference value :  1.27044e-05
 Reference value :  1.27501e-05
 Reference value :  1.27502e-05
 Reference value :  1.27503e-05
 Reference value :  1.27507e-05
 Reference value :  1.27515e-05
 Reference value :  1.27520e-05
 Reference value :  1.27533e-05
 Reference value :  1.27546e-05
 Reference value :  1.27560e-05
 Reference value :  1.27569e-05
 Reference value :  1.27596e-05
 Reference value :  1.27710e-05
 Reference value :  1.28309e-05
 Reference value :  1.30000e-05
 Reference value :  1.30000e-05
 Reference value :  1.30001e-05
 Reference value :  1.30002e-05
 Reference value :  1.30005e-05
 Reference value :  1.30013e-05
 Reference value :  1.30022e-05
 Reference value :  1.30041e-05
 Reference value :  1.30056e-05
 Reference value :  1.30075e-05
 Reference value :  1.30095e-05
 Reference value :  1.30116e-05
 Reference value :  1.30128e-05
 Reference value :  1.30207e-05
 Reference value :  1.30662e-05
 Reference value :  1.32501e-05
 Reference value :  1.32502e-05
 Reference value :  1.32503e-05
 Reference value :  1.32511e-05
 Reference value :  1.32520e-05
 Reference value :  1.32540e-05
 Reference value :  1.32546e-05
 Reference value :  1.32569e-05
 Reference value :  1.32588e-05
 Reference value :  1.32632e-05
 Reference value :  1.32839e-05
 Reference value :  1.33582e-05
 Reference value :  1.35000e-05
 Reference value :  1.35001e-05
 Reference value :  1.35002e-05
 Reference value :  1.35005e-05
 Reference value :  1.35013e-05
 Reference value :  1.35022e-05
 Reference value :  1.35034e-05
 Reference value :  1.35046e-05
 Reference value :  1.35058e-05
 Reference value :  1.35064e-05
 Reference value :  1.35090e-05
 Reference value :  1.35115e-05
 Reference value :  1.35138e-05
 Reference value :  1.35163e-05
 Reference value :  1.35185e-05
 Reference value :  1.35211e-05
 Reference value :  1.35248e-05
 Reference value :  1.35270e-05
 Reference value :  1.35286e-05
 Reference value :  1.35315e-05
 Reference value :  1.35385e-05
 Reference value :  1.35566e-05
 Reference value :  1.35963e-05
 Reference value :  1.37433e-05
 Reference value :  1.37501e-05
 Reference value :  1.37502e-05
 Reference value :  1.37503e-05
 Reference value :  1.37511e-05
 Reference value :  1.37520e-05
 Reference value :  1.37533e-05
 Reference value :  1.37546e-05
 Reference value :  1.37568e-05
 Reference value :  1.37617e-05
 Reference value :  1.37811e-05
 Reference value :  1.38863e-05
 Reference value :  1.40000e-05
 Reference value :  1.40001e-05
 Reference value :  1.40003e-05
 Reference value :  1.40013e-05
 Reference value :  1.40022e-05
 Reference value :  1.40034e-05
 Reference value :  1.40046e-05
 Reference value :  1.40063e-05
 Reference value :  1.40083e-05
 Reference value :  1.40102e-05
 Reference value :  1.40124e-05
 Reference value :  1.40212e-05
 Reference value :  1.40891e-05
 Reference value :  1.42501e-05
 Reference value :  1.42502e-05
 Reference value :  1.42503e-05
 Reference value :  1.42504e-05
 Reference value :  1.42515e-05
 Reference value :  1.42526e-05
 Reference value :  1.42541e-05
 Reference value :  1.42554e-05
 Reference value :  1.42579e-05
 Reference value :  1.42655e-05
 Reference value :  1.43310e-05
 Reference value :  1.45000e-05
 Reference value :  1.45001e-05
 Reference value :  1.45003e-05
 Reference value :  1.45013e-05
 Reference value :  1.45022e-05
 Reference value :  1.45040e-05
 Reference value :  1.45052e-05
 Reference value :  1.45064e-05
 Reference value :  1.45090e-05
 Reference value :  1.45126e-05
 Reference value :  1.45154e-05
 Reference value :  1.45180e-05
 Reference value :  1.45191e-05
 Reference value :  1.45216e-05
 Reference value :  1.45286e-05
 Reference value :  1.45382e-05
 Reference value :  1.45480e-05
 Reference value :  1.45590e-05
 Reference value :  1.45791e-05
 Reference value :  1.46216e-05
 Reference value :  1.47228e-05
 Reference value :  1.47501e-05
 Reference value :  1.47502e-05
 Reference value :  1.47503e-05
 Reference value :  1.47507e-05
 Reference value :  1.47520e-05
 Reference value :  1.47533e-05
 Reference value :  1.47547e-05
 Reference value :  1.47569e-05
 Reference value :  1.47618e-05
 Reference value :  1.47814e-05
 Reference value :  1.48391e-05
 Reference value :  1.50000e-05
 Reference value :  1.50001e-05
 Reference value :  1.50001e-05
 Reference value :  1.50003e-05
 Reference value :  1.50013e-05
 Reference value :  1.50022e-05
 Reference value :  1.50034e-05
 Reference value :  1.50046e-05
 Reference value :  1.50063e-05
 Reference value :  1.50083e-05
 Reference value :  1.50102e-05
 Reference value :  1.50124e-05
 Reference value :  1.50212e-05
 Reference value :  1.50892e-05
 Reference value :  1.52501e-05
 Reference value :  1.52502e-05
 Reference value :  1.52502e-05
 Reference value :  1.52503e-05
 Reference value :  1.52504e-05
 Reference value :  1.52511e-05
 Reference value :  1.52520e-05
 Reference value :  1.52533e-05
 Reference value :  1.52541e-05
 Reference value :  1.52547e-05
 Reference value :  1.52561e-05
 Reference value :  1.52570e-05
 Reference value :  1.52596e-05
 Reference value :  1.52712e-05
 Reference value :  1.53302e-05
 Reference value :  1.54769e-05
 Reference value :  1.55004e-05
 Reference value :  1.55012e-05
 Reference value :  1.55016e-05
 Reference value :  1.55025e-05
 Reference value :  1.55037e-05
 Reference value :  1.55050e-05
 Reference value :  1.55065e-05
 Reference value :  1.55082e-05
 Reference value :  1.55109e-05
 Reference value :  1.55141e-05
 Reference value :  1.55153e-05
 Reference value :  1.55178e-05
 Reference value :  1.55189e-05
 Reference value :  1.55214e-05
 Reference value :  1.55250e-05
 Reference value :  1.55308e-05
 Reference value :  1.55392e-05
 Reference value :  1.55460e-05
 Reference value :  1.55535e-05
 Reference value :  1.55782e-05
 Reference value :  1.56261e-05
 Reference value :  1.57501e-05
 Reference value :  1.57502e-05
 Reference value :  1.57503e-05
 Reference value :  1.57511e-05
 Reference value :  1.57520e-05
 Reference value :  1.57540e-05
 Reference value :  1.57554e-05
 Reference value :  1.57581e-05
 Reference value :  1.57660e-05
 Reference value :  1.58022e-05
 Reference value :  1.59816e-05
 Reference value :  1.60000e-05
 Reference value :  1.60001e-05
 Reference value :  1.60003e-05
 Reference value :  1.60013e-05
 Reference value :  1.60022e-05
 Reference value :  1.60041e-05
 Reference value :  1.60067e-05
 Reference value :  1.60075e-05
 Reference value :  1.60095e-05
 Reference value :  1.60128e-05
 Reference value :  1.60283e-05
 Reference value :  1.61150e-05
 Reference value :  1.62501e-05
 Reference value :  1.62502e-05
 Reference value :  1.62502e-05
 Reference value :  1.62504e-05
 Reference value :  1.62515e-05
 Reference value :  1.62525e-05
 Reference value :  1.62540e-05
 Reference value :  1.62553e-05
 Reference value :  1.62569e-05
 Reference value :  1.62588e-05
 Reference value :  1.62632e-05
 Reference value :  1.62752e-05
 Reference value :  1.63217e-05
 Reference value :  1.65000e-05
 Reference value :  1.65001e-05
 Reference value :  1.65001e-05
 Reference value :  1.65003e-05
 Reference value :  1.65009e-05
 Reference value :  1.65013e-05
 Reference value :  1.65022e-05
 Reference value :  1.65034e-05
 Reference value :  1.65046e-05
 Reference value :  1.65058e-05
 Reference value :  1.65071e-05
 Reference value :  1.65100e-05
 Reference value :  1.65128e-05
 Reference value :  1.65175e-05
 Reference value :  1.65212e-05
 Reference value :  1.65273e-05
 Reference value :  1.65654e-05
 Reference value :  1.67501e-05
 Reference value :  1.67502e-05
 Reference value :  1.67507e-05
 Reference value :  1.67520e-05
 Reference value :  1.67542e-05
 Reference value :  1.67585e-05
 Reference value :  1.67805e-05
 Reference value :  1.70000e-05
 Reference value :  1.70011e-05
 Reference value :  1.70045e-05
 Reference value :  1.70075e-05
 Reference value :  1.70218e-05
 Reference value :  1.70277e-05
 Reference value :  1.70369e-05
 Reference value :  1.70403e-05
 Reference value :  1.70456e-05
 Reference value :  1.70502e-05
 Reference value :  1.70610e-05
 Reference value :  1.70860e-05
 Reference value :  1.71964e-05
 Reference value :  1.72501e-05
 Reference value :  1.72502e-05
 Reference value :  1.72503e-05
 Reference value :  1.72507e-05
 Reference value :  1.72515e-05
 Reference value :  1.72525e-05
 Reference value :  1.72540e-05
 Reference value :  1.72546e-05
 Reference value :  1.72560e-05
 Reference value :  1.72577e-05
 Reference value :  1.72648e-05
 Reference value :  1.72976e-05
 Reference value :  1.74983e-05
 Reference value :  1.75000e-05
 Reference value :  1.75001e-05
 Reference value :  1.75002e-05
 Reference value :  1.75005e-05
 Reference value :  1.75013e-05
 Reference value :  1.75022e-05
 Reference value :  1.75040e-05
 Reference value :  1.75053e-05
 Reference value :  1.75088e-05
 Reference value :  1.75117e-05
 Reference value :  1.75150e-05
 Reference value :  1.75164e-05
 Reference value :  1.75204e-05
 Reference value :  1.75268e-05
 Reference value :  1.75997e-05
 Reference value :  1.77501e-05
 Reference value :  1.77502e-05
 Reference value :  1.77507e-05
 Reference value :  1.77520e-05
 Reference value :  1.77540e-05
 Reference value :  1.77553e-05
 Reference value :  1.77596e-05
 Reference value :  1.78316e-05
 Reference value :  1.80001e-05
 Reference value :  1.80001e-05
 Reference value :  1.80007e-05
 Reference value :  1.80020e-05
 Reference value :  1.80037e-05
 Reference value :  1.80062e-05
 Reference value :  1.80100e-05
 Reference value :  1.80136e-05
 Reference value :  1.80179e-05
 Reference value :  1.80218e-05
 Reference value :  1.80594e-05
 Reference value :  1.82501e-05
 Reference value :  1.82502e-05
 Reference value :  1.82504e-05
 Reference value :  1.82515e-05
 Reference value :  1.82533e-05
 Reference value :  1.82546e-05
 Reference value :  1.82569e-05
 Reference value :  1.82650e-05
 Reference value :  1.83873e-05
 Reference value :  1.85001e-05
 Reference value :  1.85002e-05
 Reference value :  1.85009e-05
 Reference value :  1.85018e-05
 Reference value :  1.85028e-05
 Reference value :  1.85046e-05
 Reference value :  1.85063e-05
 Reference value :  1.85083e-05
 Reference value :  1.85102e-05
 Reference value :  1.85136e-05
 Reference value :  1.85502e-05
 Reference value :  1.87501e-05
 Reference value :  1.87502e-05
 Reference value :  1.87503e-05
 Reference value :  1.87511e-05
 Reference value :  1.87520e-05
 Reference value :  1.87541e-05
 Reference value :  1.87554e-05
 Reference value :  1.87570e-05
 Reference value :  1.87655e-05
 Reference value :  1.88846e-05
 Reference value :  1.90000e-05
 Reference value :  1.90001e-05
 Reference value :  1.90005e-05
 Reference value :  1.90018e-05
 Reference value :  1.90028e-05
 Reference value :  1.90046e-05
 Reference value :  1.90058e-05
 Reference value :  1.90071e-05
 Reference value :  1.90106e-05
 Reference value :  1.90140e-05
 Reference value :  1.90167e-05
 Reference value :  1.90191e-05
 Reference value :  1.90234e-05
 Reference value :  1.90428e-05
 Reference value :  1.90605e-05
 Reference value :  1.90849e-05
 Reference value :  1.91351e-05
 Reference value :  1.92501e-05
 Reference value :  1.92502e-05
 Reference value :  1.92507e-05
 Reference value :  1.92520e-05
 Reference value :  1.92540e-05
 Reference value :  1.92553e-05
 Reference value :  1.92578e-05
 Reference value :  1.92815e-05
 Reference value :  1.94971e-05
 Reference value :  1.95001e-05
 Reference value :  1.95001e-05
 Reference value :  1.95004e-05
 Reference value :  1.95010e-05
 Reference value :  1.95020e-05
 Reference value :  1.95031e-05
 Reference value :  1.95044e-05
 Reference value :  1.95059e-05
 Reference value :  1.95076e-05
 Reference value :  1.95095e-05
 Reference value :  1.95129e-05
 Reference value :  1.95273e-05
 Reference value :  1.96752e-05
 Reference value :  1.97501e-05
 Reference value :  1.97502e-05
 Reference value :  1.97503e-05
 Reference value :  1.97504e-05
 Reference value :  1.97511e-05
 Reference value :  1.97520e-05
 Reference value :  1.97533e-05
 Reference value :  1.97546e-05
 Reference value :  1.97560e-05
 Reference value :  1.97569e-05
 Reference value :  1.97588e-05
 Reference value :  1.97612e-05
 Reference value :  1.97690e-05
 Reference value :  1.97988e-05
 Reference value :  1.99181e-05
 Reference value :  2.00000e-05
 Reference value :  2.00001e-05
 Reference value :  2.00002e-05
 Reference value :  2.00009e-05
 Reference value :  2.00013e-05
 Reference value :  2.00022e-05
 Reference value :  2.00040e-05
 Reference value :  2.00046e-05
 Reference value :  2.00058e-05
 Reference value :  2.00071e-05
 Reference value :  2.00090e-05
 Reference value :  2.00115e-05
 Reference value :  2.00138e-05
 Reference value :  2.00161e-05
 Reference value :  2.00184e-05
 Reference value :  2.00210e-05
 Reference value :  2.00270e-05
 Reference value :  2.00470e-05
 Reference value :  2.00531e-05
 Reference value :  2.00584e-05
 Reference value :  2.01057e-05
 Reference value :  2.02501e-05
 Reference value :  2.02502e-05
 Reference value :  2.02507e-05
 Reference value :  2.02520e-05
 Reference value :  2.02540e-05
 Reference value :  2.02553e-05
 Reference value :  2.02578e-05
 Reference value :  2.02705e-05
 Reference value :  2.04985e-05
 Reference value :  2.05000e-05
 Reference value :  2.05001e-05
 Reference value :  2.05003e-05
 Reference value :  2.05012e-05
 Reference value :  2.05021e-05
 Reference value :  2.05039e-05
 Reference value :  2.05063e-05
 Reference value :  2.05096e-05
 Reference value :  2.05132e-05
 Reference value :  2.05276e-05
 Reference value :  2.06634e-05
 Reference value :  2.07502e-05
 Reference value :  2.07503e-05
 Reference value :  2.07507e-05
 Reference value :  2.07520e-05
 Reference value :  2.07540e-05
 Reference value :  2.07553e-05
 Reference value :  2.07596e-05
 Reference value :  2.07994e-05
 Reference value :  2.10000e-05
 Reference value :  2.10001e-05
 Reference value :  2.10002e-05
 Reference value :  2.10013e-05
 Reference value :  2.10028e-05
 Reference value :  2.10046e-05
 Reference value :  2.10058e-05
 Reference value :  2.10080e-05
 Reference value :  2.10126e-05
 Reference value :  2.10154e-05
 Reference value :  2.10191e-05
 Reference value :  2.10253e-05
 Reference value :  2.10383e-05
 Reference value :  2.10444e-05
 Reference value :  2.10530e-05
 Reference value :  2.10632e-05
 Reference value :  2.10835e-05
 Reference value :  2.11113e-05
 Reference value :  2.12124e-05
 Reference value :  2.12501e-05
 Reference value :  2.12502e-05
 Reference value :  2.12503e-05
 Reference value :  2.12511e-05
 Reference value :  2.12520e-05
 Reference value :  2.12533e-05
 Reference value :  2.12547e-05
 Reference value :  2.12571e-05
 Reference value :  2.12659e-05
 Reference value :  2.13337e-05
 Reference value :  2.15000e-05
 Reference value :  2.15001e-05
 Reference value :  2.15003e-05
 Reference value :  2.15013e-05
 Reference value :  2.15027e-05
 Reference value :  2.15049e-05
 Reference value :  2.15067e-05
 Reference value :  2.15075e-05
 Reference value :  2.15095e-05
 Reference value :  2.15128e-05
 Reference value :  2.15283e-05
 Reference value :  2.17120e-05
 Reference value :  2.17502e-05
 Reference value :  2.17502e-05
 Reference value :  2.17507e-05
 Reference value :  2.17520e-05
 Reference value :  2.17533e-05
 Reference value :  2.17546e-05
 Reference value :  2.17560e-05
 Reference value :  2.17579e-05
 Reference value :  2.17612e-05
 Reference value :  2.17690e-05
 Reference value :  2.17987e-05
 Reference value :  2.19174e-05
 Reference value :  2.20013e-05
 Reference value :  2.20039e-05
 Reference value :  2.20053e-05
 Reference value :  2.20076e-05
 Reference value :  2.20113e-05
 Reference value :  2.20139e-05
 Reference value :  2.20161e-05
 Reference value :  2.20180e-05
 Reference value :  2.20201e-05
 Reference value :  2.20218e-05
 Reference value :  2.20255e-05
 Reference value :  2.20365e-05
 Reference value :  2.20606e-05
 Reference value :  2.21449e-05
 Reference value :  2.22501e-05
 Reference value :  2.22502e-05
 Reference value :  2.22503e-05
 Reference value :  2.22507e-05
 Reference value :  2.22515e-05
 Reference value :  2.22520e-05
 Reference value :  2.22532e-05
 Reference value :  2.22547e-05
 Reference value :  2.22568e-05
 Reference value :  2.22617e-05
 Reference value :  2.22811e-05
 Reference value :  2.23866e-05
 Reference value :  2.25000e-05
 Reference value :  2.25001e-05
 Reference value :  2.25003e-05
 Reference value :  2.25013e-05
 Reference value :  2.25022e-05
 Reference value :  2.25034e-05
 Reference value :  2.25046e-05
 Reference value :  2.25063e-05
 Reference value :  2.25085e-05
 Reference value :  2.25106e-05
 Reference value :  2.25144e-05
 Reference value :  2.25408e-05
 Reference value :  2.27501e-05
 Reference value :  2.27502e-05
 Reference value :  2.27502e-05
 Reference value :  2.27504e-05
 Reference value :  2.27515e-05
 Reference value :  2.27525e-05
 Reference value :  2.27546e-05
 Reference value :  2.27570e-05
 Reference value :  2.27619e-05
 Reference value :  2.27996e-05
 Reference value :  2.30000e-05
 Reference value :  2.30001e-05
 Reference value :  2.30001e-05
 Reference value :  2.30002e-05
 Reference value :  2.30008e-05
 Reference value :  2.30017e-05
 Reference value :  2.30027e-05
 Reference value :  2.30045e-05
 Reference value :  2.30058e-05
 Reference value :  2.30071e-05
 Reference value :  2.30126e-05
 Reference value :  2.30153e-05
 Reference value :  2.30190e-05
 Reference value :  2.30232e-05
 Reference value :  2.30383e-05
 Reference value :  2.30480e-05
 Reference value :  2.30571e-05
 Reference value :  2.30900e-05
 Reference value :  2.30989e-05
 Reference value :  2.31076e-05
 Reference value :  2.31233e-05
 Reference value :  2.31905e-05
 Reference value :  2.32502e-05
 Reference value :  2.32507e-05
 Reference value :  2.32526e-05
 Reference value :  2.32547e-05
 Reference value :  2.32569e-05
 Reference value :  2.32709e-05
 Reference value :  2.34808e-05
 Reference value :  2.35001e-05
 Reference value :  2.35005e-05
 Reference value :  2.35022e-05
 Reference value :  2.35046e-05
 Reference value :  2.35073e-05
 Reference value :  2.35102e-05
 Reference value :  2.35136e-05
 Reference value :  2.35504e-05
 Reference value :  2.37502e-05
 Reference value :  2.37504e-05
 Reference value :  2.37520e-05
 Reference value :  2.37541e-05
 Reference value :  2.37554e-05
 Reference value :  2.37570e-05
 Reference value :  2.37619e-05
 Reference value :  2.37817e-05
 Reference value :  2.38837e-05
 Reference value :  2.40000e-05
 Reference value :  2.40001e-05
 Reference value :  2.40001e-05
 Reference value :  2.40003e-05
 Reference value :  2.40009e-05
 Reference value :  2.40013e-05
 Reference value :  2.40022e-05
 Reference value :  2.40046e-05
 Reference value :  2.40058e-05
 Reference value :  2.40071e-05
 Reference value :  2.40106e-05
 Reference value :  2.40140e-05
 Reference value :  2.40167e-05
 Reference value :  2.40191e-05
 Reference value :  2.40216e-05
 Reference value :  2.40253e-05
 Reference value :  2.40356e-05
 Reference value :  2.40507e-05
 Reference value :  2.40731e-05
 Reference value :  2.41107e-05
 Reference value :  2.41457e-05
 Reference value :  2.42501e-05
 Reference value :  2.42502e-05
 Reference value :  2.42502e-05
 Reference value :  2.42507e-05
 Reference value :  2.42520e-05
 Reference value :  2.42540e-05
 Reference value :  2.42553e-05
 Reference value :  2.42569e-05
 Reference value :  2.42617e-05
 Reference value :  2.42985e-05
 Reference value :  2.45000e-05
 Reference value :  2.45001e-05
 Reference value :  2.45001e-05
 Reference value :  2.45003e-05
 Reference value :  2.45013e-05
 Reference value :  2.45022e-05
 Reference value :  2.45040e-05
 Reference value :  2.45053e-05
 Reference value :  2.45073e-05
 Reference value :  2.45093e-05
 Reference value :  2.45112e-05
 Reference value :  2.45136e-05
 Reference value :  2.45309e-05
 Reference value :  2.47501e-05
 Reference value :  2.47502e-05
 Reference value :  2.47503e-05
 Reference value :  2.47507e-05
 Reference value :  2.47515e-05
 Reference value :  2.47526e-05
 Reference value :  2.47547e-05
 Reference value :  2.47570e-05
 Reference value :  2.47715e-05
 Reference value :  2.49782e-05
 Reference value :  2.50001e-05
 Reference value :  2.50002e-05
 Reference value :  2.50009e-05
 Reference value :  2.50018e-05
 Reference value :  2.50028e-05
 Reference value :  2.50046e-05
 Reference value :  2.50058e-05
 Reference value :  2.50071e-05
 Reference value :  2.50100e-05
 Reference value :  2.50145e-05
 Reference value :  2.50331e-05
 Reference value :  2.52501e-05
 Reference value :  2.52502e-05
 Reference value :  2.52504e-05
 Reference value :  2.52515e-05
 Reference value :  2.52533e-05
 Reference value :  2.52561e-05
 Reference value :  2.52628e-05
 Reference value :  2.52939e-05
 Reference value :  2.54330e-05
 Reference value :  2.55011e-05
 Reference value :  2.55046e-05
 Reference value :  2.55067e-05
 Reference value :  2.55095e-05
 Reference value :  2.55160e-05
 Reference value :  2.55274e-05
 Reference value :  2.55327e-05
 Reference value :  2.55364e-05
 Reference value :  2.55425e-05
 Reference value :  2.55471e-05
 Reference value :  2.55554e-05
 Reference value :  2.55736e-05
 Reference value :  2.55958e-05
 Reference value :  2.57267e-05
 Reference value :  2.57502e-05
 Reference value :  2.57503e-05
 Reference value :  2.57507e-05
 Reference value :  2.57520e-05
 Reference value :  2.57540e-05
 Reference value :  2.57553e-05
 Reference value :  2.57578e-05
 Reference value :  2.57707e-05
 Reference value :  2.58300e-05
 Reference value :  2.60000e-05
 Reference value :  2.60001e-05
 Reference value :  2.60003e-05
 Reference value :  2.60013e-05
 Reference value :  2.60022e-05
 Reference value :  2.60034e-05
 Reference value :  2.60046e-05
 Reference value :  2.60074e-05
 Reference value :  2.60088e-05
 Reference value :  2.60131e-05
 Reference value :  2.60164e-05
 Reference value :  2.60204e-05
 Reference value :  2.60330e-05
 Reference value :  2.62501e-05
 Reference value :  2.62502e-05
 Reference value :  2.62502e-05
 Reference value :  2.62507e-05
 Reference value :  2.62520e-05
 Reference value :  2.62540e-05
 Reference value :  2.62560e-05
 Reference value :  2.62654e-05
 Reference value :  2.63867e-05
 Reference value :  2.65001e-05
 Reference value :  2.65001e-05
 Reference value :  2.65007e-05
 Reference value :  2.65021e-05
 Reference value :  2.65037e-05
 Reference value :  2.65057e-05
 Reference value :  2.65103e-05
 Reference value :  2.65139e-05
 Reference value :  2.65180e-05
 Reference value :  2.65217e-05
 Reference value :  2.65428e-05
 Reference value :  2.67501e-05
 Reference value :  2.67503e-05
 Reference value :  2.67520e-05
 Reference value :  2.67546e-05
 Reference value :  2.67568e-05
 Reference value :  2.67650e-05
 Reference value :  2.68868e-05
 Reference value :  2.70000e-05
 Reference value :  2.70001e-05
 Reference value :  2.70005e-05
 Reference value :  2.70013e-05
 Reference value :  2.70022e-05
 Reference value :  2.70046e-05
 Reference value :  2.70073e-05
 Reference value :  2.70102e-05
 Reference value :  2.70212e-05
 Reference value :  2.72501e-05
 Reference value :  2.72502e-05
 Reference value :  2.72511e-05
 Reference value :  2.72526e-05
 Reference value :  2.72547e-05
 Reference value :  2.72570e-05
 Reference value :  2.72654e-05
 Reference value :  2.73836e-05
 Reference value :  2.75000e-05
 Reference value :  2.75001e-05
 Reference value :  2.75005e-05
 Reference value :  2.75013e-05
 Reference value :  2.75022e-05
 Reference value :  2.75040e-05
 Reference value :  2.75052e-05
 Reference value :  2.75064e-05
 Reference value :  2.75106e-05
 Reference value :  2.75140e-05
 Reference value :  2.75180e-05
 Reference value :  2.75203e-05
 Reference value :  2.75287e-05
 Reference value :  2.75530e-05
 Reference value :  2.75727e-05
 Reference value :  2.75866e-05
 Reference value :  2.75993e-05
 Reference value :  2.76387e-05
 Reference value :  2.77501e-05
 Reference value :  2.77502e-05
 Reference value :  2.77502e-05
 Reference value :  2.77504e-05
 Reference value :  2.77511e-05
 Reference value :  2.77520e-05
 Reference value :  2.77540e-05
 Reference value :  2.77560e-05
 Reference value :  2.77599e-05
 Reference value :  2.77833e-05
 Reference value :  2.79818e-05
 Reference value :  2.80003e-05
 Reference value :  2.80013e-05
 Reference value :  2.80025e-05
 Reference value :  2.80045e-05
 Reference value :  2.80063e-05
 Reference value :  2.80096e-05
 Reference value :  2.80118e-05
 Reference value :  2.80146e-05
 Reference value :  2.80379e-05
 Reference value :  2.82501e-05
 Reference value :  2.82502e-05
 Reference value :  2.82503e-05
 Reference value :  2.82507e-05
 Reference value :  2.82515e-05
 Reference value :  2.82533e-05
 Reference value :  2.82547e-05
 Reference value :  2.82570e-05
 Reference value :  2.82612e-05
 Reference value :  2.82832e-05
 Reference value :  2.85000e-05
 Reference value :  2.85001e-05
 Reference value :  2.85003e-05
 Reference value :  2.85013e-05
 Reference value :  2.85028e-05
 Reference value :  2.85046e-05
 Reference value :  2.85058e-05
 Reference value :  2.85071e-05
 Reference value :  2.85090e-05
 Reference value :  2.85115e-05
 Reference value :  2.85138e-05
 Reference value :  2.85161e-05
 Reference value :  2.85184e-05
 Reference value :  2.85209e-05
 Reference value :  2.85312e-05
 Reference value :  2.85430e-05
 Reference value :  2.85508e-05
 Reference value :  2.85592e-05
 Reference value :  2.85887e-05
 Reference value :  2.87106e-05
 Reference value :  2.87501e-05
 Reference value :  2.87503e-05
 Reference value :  2.87507e-05
 Reference value :  2.87515e-05
 Reference value :  2.87526e-05
 Reference value :  2.87541e-05
 Reference value :  2.87553e-05
 Reference value :  2.87569e-05
 Reference value :  2.87652e-05
 Reference value :  2.88849e-05
 Reference value :  2.90003e-05
 Reference value :  2.90012e-05
 Reference value :  2.90020e-05
 Reference value :  2.90030e-05
 Reference value :  2.90042e-05
 Reference value :  2.90059e-05
 Reference value :  2.90076e-05
 Reference value :  2.90094e-05
 Reference value :  2.90128e-05
 Reference value :  2.90268e-05
 Reference value :  2.92200e-05
 Reference value :  2.92502e-05
 Reference value :  2.92502e-05
 Reference value :  2.92504e-05
 Reference value :  2.92510e-05
 Reference value :  2.92520e-05
 Reference value :  2.92540e-05
 Reference value :  2.92553e-05
 Reference value :  2.92578e-05
 Reference value :  2.92707e-05
 Reference value :  2.93894e-05
 Reference value :  2.95001e-05
 Reference value :  2.95002e-05
 Reference value :  2.95009e-05
 Reference value :  2.95018e-05
 Reference value :  2.95028e-05
 Reference value :  2.95046e-05
 Reference value :  2.95058e-05
 Reference value :  2.95071e-05
 Reference value :  2.95106e-05
 Reference value :  2.95140e-05
 Reference value :  2.95167e-05
 Reference value :  2.95191e-05
 Reference value :  2.95234e-05
 Reference value :  2.95286e-05
 Reference value :  2.95394e-05
 Reference value :  2.95473e-05
 Reference value :  2.95643e-05
 Reference value :  2.95834e-05
 Reference value :  2.96115e-05
 Reference value :  2.97146e-05
 Reference value :  2.97501e-05
 Reference value :  2.97502e-05
 Reference value :  2.97503e-05
 Reference value :  2.97507e-05
 Reference value :  2.97515e-05
 Reference value :  2.97525e-05
 Reference value :  2.97546e-05
 Reference value :  2.97569e-05
 Reference value :  2.97618e-05
 Reference value :  2.97990e-05
 Reference value :  2.99139e-05
 Reference value :  2.99600e-05
 Reference value :  3.00000e-05
 Reference value :  3.00001e-05
 Reference value :  3.00002e-05
 Reference value :  3.00005e-05
 Reference value :  3.00013e-05
 Reference value :  3.00022e-05
 Reference value :  3.00040e-05
 Reference value :  3.00053e-05
 Reference value :  3.00073e-05
 Reference value :  3.00093e-05
 Reference value :  3.00113e-05
 Reference value :  3.00137e-05
 Reference value :  3.00505e-05
 Reference value :  3.02501e-05
 Reference value :  3.02502e-05
 Reference value :  3.02504e-05
 Reference value :  3.02515e-05
 Reference value :  3.02533e-05
 Reference value :  3.02547e-05
 Reference value :  3.02570e-05
 Reference value :  3.02619e-05
 Reference value :  3.03301e-05
 Reference value :  3.05004e-05
 Reference value :  3.05016e-05
 Reference value :  3.05026e-05
 Reference value :  3.05044e-05
 Reference value :  3.05066e-05
 Reference value :  3.05109e-05
 Reference value :  3.05155e-05
 Reference value :  3.05191e-05
 Reference value :  3.05254e-05
 Reference value :  3.05375e-05
 Reference value :  3.05486e-05
 Reference value :  3.05699e-05
 Reference value :  3.07222e-05
 Reference value :  3.07502e-05
 Reference value :  3.07503e-05
 Reference value :  3.07507e-05
 Reference value :  3.07515e-05
 Reference value :  3.07525e-05
 Reference value :  3.07540e-05
 Reference value :  3.07553e-05
 Reference value :  3.07568e-05
 Reference value :  3.07616e-05
 Reference value :  3.07808e-05
 Reference value :  3.08938e-05
 Reference value :  3.10000e-05
 Reference value :  3.10001e-05
 Reference value :  3.10005e-05
 Reference value :  3.10018e-05
 Reference value :  3.10033e-05
 Reference value :  3.10049e-05
 Reference value :  3.10067e-05
 Reference value :  3.10075e-05
 Reference value :  3.10095e-05
 Reference value :  3.10116e-05
 Reference value :  3.10141e-05
 Reference value :  3.10421e-05
 Reference value :  3.12501e-05
 Reference value :  3.12502e-05
 Reference value :  3.12503e-05
 Reference value :  3.12511e-05
 Reference value :  3.12520e-05
 Reference value :  3.12540e-05
 Reference value :  3.12560e-05
 Reference value :  3.12600e-05
 Reference value :  3.12753e-05
 Reference value :  3.15000e-05
 Reference value :  3.15001e-05
 Reference value :  3.15005e-05
 Reference value :  3.15018e-05
 Reference value :  3.15034e-05
 Reference value :  3.15046e-05
 Reference value :  3.15058e-05
 Reference value :  3.15071e-05
 Reference value :  3.15105e-05
 Reference value :  3.15115e-05
 Reference value :  3.15151e-05
 Reference value :  3.15187e-05
 Reference value :  3.15229e-05
 Reference value :  3.15314e-05
 Reference value :  3.15462e-05
 Reference value :  3.15788e-05
 Reference value :  3.16473e-05
 Reference value :  3.16834e-05
 Reference value :  3.17501e-05
 Reference value :  3.17502e-05
 Reference value :  3.17511e-05
 Reference value :  3.17526e-05
 Reference value :  3.17546e-05
 Reference value :  3.17569e-05
 Reference value :  3.17617e-05
 Reference value :  3.17812e-05
 Reference value :  3.18849e-05
 Reference value :  3.20000e-05
 Reference value :  3.20001e-05
 Reference value :  3.20002e-05
 Reference value :  3.20013e-05
 Reference value :  3.20033e-05
 Reference value :  3.20049e-05
 Reference value :  3.20067e-05
 Reference value :  3.20075e-05
 Reference value :  3.20095e-05
 Reference value :  3.20128e-05
 Reference value :  3.20419e-05
 Reference value :  3.22501e-05
 Reference value :  3.22503e-05
 Reference value :  3.22515e-05
 Reference value :  3.22533e-05
 Reference value :  3.22553e-05
 Reference value :  3.22578e-05
 Reference value :  3.22612e-05
 Reference value :  3.22690e-05
 Reference value :  3.23214e-05
 Reference value :  3.25000e-05
 Reference value :  3.25001e-05
 Reference value :  3.25003e-05
 Reference value :  3.25013e-05
 Reference value :  3.25022e-05
 Reference value :  3.25040e-05
 Reference value :  3.25046e-05
 Reference value :  3.25058e-05
 Reference value :  3.25064e-05
 Reference value :  3.25080e-05
 Reference value :  3.25105e-05
 Reference value :  3.25115e-05
 Reference value :  3.25138e-05
 Reference value :  3.25163e-05
 Reference value :  3.25186e-05
 Reference value :  3.25213e-05
 Reference value :  3.25279e-05
 Reference value :  3.25350e-05
 Reference value :  3.25538e-05
 Reference value :  3.25926e-05
 Reference value :  3.26137e-05
 Reference value :  3.26754e-05
 Reference value :  3.27501e-05
 Reference value :  3.27502e-05
 Reference value :  3.27503e-05
 Reference value :  3.27511e-05
 Reference value :  3.27520e-05
 Reference value :  3.27533e-05
 Reference value :  3.27546e-05
 Reference value :  3.27559e-05
 Reference value :  3.27578e-05
 Reference value :  3.27650e-05
 Reference value :  3.27983e-05
 Reference value :  3.28226e-05
 Reference value :  3.28384e-05
 Reference value :  3.28822e-05
 Reference value :  3.30000e-05
 Reference value :  3.30001e-05
 Reference value :  3.30001e-05
 Reference value :  3.30003e-05
 Reference value :  3.30013e-05
 Reference value :  3.30022e-05
 Reference value :  3.30033e-05
 Reference value :  3.30049e-05
 Reference value :  3.30075e-05
 Reference value :  3.30095e-05
 Reference value :  3.30116e-05
 Reference value :  3.30168e-05
 Reference value :  3.30662e-05
 Reference value :  3.32501e-05
 Reference value :  3.32502e-05
 Reference value :  3.32503e-05
 Reference value :  3.32510e-05
 Reference value :  3.32520e-05
 Reference value :  3.32540e-05
 Reference value :  3.32553e-05
 Reference value :  3.32579e-05
 Reference value :  3.32612e-05
 Reference value :  3.32750e-05
 Reference value :  3.33572e-05
 Reference value :  3.35013e-05
 Reference value :  3.35054e-05
 Reference value :  3.35088e-05
 Reference value :  3.35119e-05
 Reference value :  3.35181e-05
 Reference value :  3.35242e-05
 Reference value :  3.35511e-05
 Reference value :  3.37501e-05
 Reference value :  3.37502e-05
 Reference value :  3.37507e-05
 Reference value :  3.37520e-05
 Reference value :  3.37549e-05
 Reference value :  3.37601e-05
 Reference value :  3.38113e-05
 Reference value :  3.40001e-05
 Reference value :  3.40002e-05
 Reference value :  3.40015e-05
 Reference value :  3.40037e-05
 Reference value :  3.40057e-05
 Reference value :  3.40078e-05
 Reference value :  3.40272e-05
 Reference value :  3.40329e-05
 Reference value :  3.40368e-05
 Reference value :  3.40440e-05
 Reference value :  3.40522e-05
 Reference value :  3.40647e-05
 Reference value :  3.40804e-05
 Reference value :  3.41106e-05
 Reference value :  3.41717e-05
 Reference value :  3.42501e-05
 Reference value :  3.42502e-05
 Reference value :  3.42503e-05
 Reference value :  3.42511e-05
 Reference value :  3.42525e-05
 Reference value :  3.42546e-05
 Reference value :  3.42568e-05
 Reference value :  3.42649e-05
 Reference value :  3.43295e-05
 Reference value :  3.45000e-05
 Reference value :  3.45001e-05
 Reference value :  3.45002e-05
 Reference value :  3.45009e-05
 Reference value :  3.45013e-05
 Reference value :  3.45022e-05
 Reference value :  3.45040e-05
 Reference value :  3.45053e-05
 Reference value :  3.45088e-05
 Reference value :  3.45117e-05
 Reference value :  3.45150e-05
 Reference value :  3.45164e-05
 Reference value :  3.45204e-05
 Reference value :  3.45330e-05
 Reference value :  3.45991e-05
 Reference value :  3.47501e-05
 Reference value :  3.47502e-05
 Reference value :  3.47503e-05
 Reference value :  3.47511e-05
 Reference value :  3.47520e-05
 Reference value :  3.47540e-05
 Reference value :  3.47553e-05
 Reference value :  3.47579e-05
 Reference value :  3.47713e-05
 Reference value :  3.48315e-05
 Reference value :  3.50000e-05
 Reference value :  3.50001e-05
 Reference value :  3.50001e-05
 Reference value :  3.50003e-05
 Reference value :  3.50013e-05
 Reference value :  3.50022e-05
 Reference value :  3.50034e-05
 Reference value :  3.50046e-05
 Reference value :  3.50058e-05
 Reference value :  3.50071e-05
 Reference value :  3.50106e-05
 Reference value :  3.50140e-05
 Reference value :  3.50154e-05
 Reference value :  3.50180e-05
 Reference value :  3.50191e-05
 Reference value :  3.50235e-05
 Reference value :  3.50427e-05
 Reference value :  3.51305e-05
 Reference value :  3.52501e-05
 Reference value :  3.52502e-05
 Reference value :  3.52504e-05
 Reference value :  3.52515e-05
 Reference value :  3.52525e-05
 Reference value :  3.52540e-05
 Reference value :  3.52553e-05
 Reference value :  3.52569e-05
 Reference value :  3.52617e-05
 Reference value :  3.53306e-05
 Reference value :  3.55000e-05
 Reference value :  3.55002e-05
 Reference value :  3.55013e-05
 Reference value :  3.55022e-05
 Reference value :  3.55046e-05
 Reference value :  3.55073e-05
 Reference value :  3.55092e-05
 Reference value :  3.55124e-05
 Reference value :  3.55504e-05
 Reference value :  3.57501e-05
 Reference value :  3.57502e-05
 Reference value :  3.57507e-05
 Reference value :  3.57520e-05
 Reference value :  3.57533e-05
 Reference value :  3.57547e-05
 Reference value :  3.57561e-05
 Reference value :  3.57579e-05
 Reference value :  3.57620e-05
 Reference value :  3.57821e-05
 Reference value :  3.58847e-05
 Reference value :  3.60004e-05
 Reference value :  3.60016e-05
 Reference value :  3.60029e-05
 Reference value :  3.60041e-05
 Reference value :  3.60053e-05
 Reference value :  3.60059e-05
 Reference value :  3.60080e-05
 Reference value :  3.60141e-05
 Reference value :  3.60166e-05
 Reference value :  3.60189e-05
 Reference value :  3.60250e-05
 Reference value :  3.60520e-05
 Reference value :  3.60822e-05
 Reference value :  3.60968e-05
 Reference value :  3.61264e-05
 Reference value :  3.62501e-05
 Reference value :  3.62502e-05
 Reference value :  3.62503e-05
 Reference value :  3.62507e-05
 Reference value :  3.62515e-05
 Reference value :  3.62526e-05
 Reference value :  3.62540e-05
 Reference value :  3.62554e-05
 Reference value :  3.62581e-05
 Reference value :  3.62660e-05
 Reference value :  3.63022e-05
 Reference value :  3.64814e-05
 Reference value :  3.65000e-05
 Reference value :  3.65001e-05
 Reference value :  3.65002e-05
 Reference value :  3.65003e-05
 Reference value :  3.65013e-05
 Reference value :  3.65022e-05
 Reference value :  3.65041e-05
 Reference value :  3.65056e-05
 Reference value :  3.65075e-05
 Reference value :  3.65095e-05
 Reference value :  3.65128e-05
 Reference value :  3.65207e-05
 Reference value :  3.66152e-05
 Reference value :  3.67501e-05
 Reference value :  3.67502e-05
 Reference value :  3.67504e-05
 Reference value :  3.67515e-05
 Reference value :  3.67533e-05
 Reference value :  3.67546e-05
 Reference value :  3.67570e-05
 Reference value :  3.67600e-05
 Reference value :  3.67655e-05
 Reference value :  3.67990e-05
 Reference value :  3.70000e-05
 Reference value :  3.70001e-05
 Reference value :  3.70001e-05
 Reference value :  3.70003e-05
 Reference value :  3.70009e-05
 Reference value :  3.70013e-05
 Reference value :  3.70022e-05
 Reference value :  3.70040e-05
 Reference value :  3.70046e-05
 Reference value :  3.70058e-05
 Reference value :  3.70071e-05
 Reference value :  3.70105e-05
 Reference value :  3.70115e-05
 Reference value :  3.70138e-05
 Reference value :  3.70163e-05
 Reference value :  3.70185e-05
 Reference value :  3.70211e-05
 Reference value :  3.70276e-05
 Reference value :  3.70450e-05
 Reference value :  3.70481e-05
 Reference value :  3.70541e-05
 Reference value :  3.70745e-05
 Reference value :  3.71605e-05
 Reference value :  3.72501e-05
 Reference value :  3.72502e-05
 Reference value :  3.72503e-05
 Reference value :  3.72511e-05
 Reference value :  3.72520e-05
 Reference value :  3.72533e-05
 Reference value :  3.72546e-05
 Reference value :  3.72560e-05
 Reference value :  3.72578e-05
 Reference value :  3.72650e-05
 Reference value :  3.72982e-05
 Reference value :  3.74985e-05
 Reference value :  3.75000e-05
 Reference value :  3.75001e-05
 Reference value :  3.75002e-05
 Reference value :  3.75009e-05
 Reference value :  3.75018e-05
 Reference value :  3.75028e-05
 Reference value :  3.75046e-05
 Reference value :  3.75073e-05
 Reference value :  3.75093e-05
 Reference value :  3.75112e-05
 Reference value :  3.75136e-05
 Reference value :  3.75503e-05
 Reference value :  3.77501e-05
 Reference value :  3.77502e-05
 Reference value :  3.77502e-05
 Reference value :  3.77504e-05
 Reference value :  3.77511e-05
 Reference value :  3.77520e-05
 Reference value :  3.77533e-05
 Reference value :  3.77547e-05
 Reference value :  3.77570e-05
 Reference value :  3.77620e-05
 Reference value :  3.77998e-05
 Reference value :  3.79779e-05
 Reference value :  3.80000e-05
 Reference value :  3.80001e-05
 Reference value :  3.80002e-05
 Reference value :  3.80003e-05
 Reference value :  3.80013e-05
 Reference value :  3.80022e-05
 Reference value :  3.80034e-05
 Reference value :  3.80046e-05
 Reference value :  3.80058e-05
 Reference value :  3.80071e-05
 Reference value :  3.80106e-05
 Reference value :  3.80140e-05
 Reference value :  3.80167e-05
 Reference value :  3.80191e-05
 Reference value :  3.80234e-05
 Reference value :  3.80338e-05
 Reference value :  3.80466e-05
 Reference value :  3.80561e-05
 Reference value :  3.80673e-05
 Reference value :  3.80883e-05
 Reference value :  3.81446e-05
 Reference value :  3.82152e-05
 Reference value :  3.82501e-05
 Reference value :  3.82502e-05
 Reference value :  3.82503e-05
 Reference value :  3.82511e-05
 Reference value :  3.82520e-05
 Reference value :  3.82533e-05
 Reference value :  3.82547e-05
 Reference value :  3.82561e-05
 Reference value :  3.82600e-05
 Reference value :  3.82710e-05
 Reference value :  3.82811e-05
 Reference value :  3.82981e-05
 Reference value :  3.83310e-05
 Reference value :  3.85007e-05
 Reference value :  3.85029e-05
 Reference value :  3.85044e-05
 Reference value :  3.85078e-05
 Reference value :  3.85107e-05
 Reference value :  3.85130e-05
 Reference value :  3.85279e-05
 Reference value :  3.86153e-05
 Reference value :  3.87501e-05
 Reference value :  3.87502e-05
 Reference value :  3.87503e-05
 Reference value :  3.87511e-05
 Reference value :  3.87520e-05
 Reference value :  3.87540e-05
 Reference value :  3.87546e-05
 Reference value :  3.87569e-05
 Reference value :  3.87653e-05
 Reference value :  3.87995e-05
 Reference value :  3.90000e-05
 Reference value :  3.90001e-05
 Reference value :  3.90001e-05
 Reference value :  3.90003e-05
 Reference value :  3.90013e-05
 Reference value :  3.90022e-05
 Reference value :  3.90034e-05
 Reference value :  3.90046e-05
 Reference value :  3.90058e-05
 Reference value :  3.90071e-05
 Reference value :  3.90106e-05
 Reference value :  3.90140e-05
 Reference value :  3.90167e-05
 Reference value :  3.90191e-05
 Reference value :  3.90216e-05
 Reference value :  3.90286e-05
 Reference value :  3.90395e-05
 Reference value :  3.90478e-05
 Reference value :  3.90624e-05
 Reference value :  3.91179e-05
 Reference value :  3.92501e-05
 Reference value :  3.92502e-05
 Reference value :  3.92503e-05
 Reference value :  3.92511e-05
 Reference value :  3.92520e-05
 Reference value :  3.92540e-05
 Reference value :  3.92553e-05
 Reference value :  3.92569e-05
 Reference value :  3.92596e-05
 Reference value :  3.92710e-05
 Reference value :  3.93861e-05
 Reference value :  3.95000e-05
 Reference value :  3.95001e-05
 Reference value :  3.95002e-05
 Reference value :  3.95005e-05
 Reference value :  3.95013e-05
 Reference value :  3.95022e-05
 Reference value :  3.95041e-05
 Reference value :  3.95067e-05
 Reference value :  3.95084e-05
 Reference value :  3.95106e-05
 Reference value :  3.95128e-05
 Reference value :  3.95207e-05
 Reference value :  3.97119e-05
 Reference value :  3.97502e-05
 Reference value :  3.97503e-05
 Reference value :  3.97507e-05
 Reference value :  3.97520e-05
 Reference value :  3.97540e-05
 Reference value :  3.97553e-05
 Reference value :  3.97569e-05
 Reference value :  3.97612e-05
 Reference value :  3.97987e-05
 Reference value :  4.00000e-05
 Reference value :  4.00001e-05
 Reference value :  4.00003e-05
 Reference value :  4.00013e-05
 Reference value :  4.00022e-05
 Reference value :  4.00040e-05
 Reference value :  4.00052e-05
 Reference value :  4.00064e-05
 Reference value :  4.00090e-05
 Reference value :  4.00115e-05
 Reference value :  4.00139e-05
 Reference value :  4.00163e-05
 Reference value :  4.00188e-05
 Reference value :  4.00250e-05
 Reference value :  4.00349e-05
 Reference value :  4.00427e-05
 Reference value :  4.00554e-05
 Reference value :  4.00904e-05
 Reference value :  4.02296e-05
 Reference value :  4.02501e-05
 Reference value :  4.02502e-05
 Reference value :  4.02503e-05
 Reference value :  4.02507e-05
 Reference value :  4.02515e-05
 Reference value :  4.02525e-05
 Reference value :  4.02540e-05
 Reference value :  4.02553e-05
 Reference value :  4.02568e-05
 Reference value :  4.02616e-05
 Reference value :  4.02811e-05
 Reference value :  4.03303e-05
 Reference value :  4.03631e-05
 Reference value :  4.04069e-05
 Reference value :  4.04695e-05
 Reference value :  4.05000e-05
 Reference value :  4.05001e-05
 Reference value :  4.05003e-05
 Reference value :  4.05013e-05
 Reference value :  4.05022e-05
 Reference value :  4.05049e-05
 Reference value :  4.05075e-05
 Reference value :  4.05106e-05
 Reference value :  4.05168e-05
 Reference value :  4.06071e-05
 Reference value :  4.07501e-05
 Reference value :  4.07502e-05
 Reference value :  4.07511e-05
 Reference value :  4.07520e-05
 Reference value :  4.07540e-05
 Reference value :  4.07547e-05
 Reference value :  4.07561e-05
 Reference value :  4.07579e-05
 Reference value :  4.07600e-05
 Reference value :  4.07656e-05
 Reference value :  4.07842e-05
 Reference value :  4.09169e-05
 Reference value :  4.10013e-05
 Reference value :  4.10054e-05
 Reference value :  4.10077e-05
 Reference value :  4.10101e-05
 Reference value :  4.10125e-05
 Reference value :  4.10136e-05
 Reference value :  4.10157e-05
 Reference value :  4.10176e-05
 Reference value :  4.10197e-05
 Reference value :  4.10216e-05
 Reference value :  4.10262e-05
 Reference value :  4.10378e-05
 Reference value :  4.11171e-05
 Reference value :  4.12501e-05
 Reference value :  4.12502e-05
 Reference value :  4.12503e-05
 Reference value :  4.12511e-05
 Reference value :  4.12520e-05
 Reference value :  4.12533e-05
 Reference value :  4.12547e-05
 Reference value :  4.12569e-05
 Reference value :  4.12617e-05
 Reference value :  4.12812e-05
 Reference value :  4.13856e-05
 Reference value :  4.15000e-05
 Reference value :  4.15001e-05
 Reference value :  4.15002e-05
 Reference value :  4.15003e-05
 Reference value :  4.15009e-05
 Reference value :  4.15013e-05
 Reference value :  4.15022e-05
 Reference value :  4.15034e-05
 Reference value :  4.15046e-05
 Reference value :  4.15063e-05
 Reference value :  4.15085e-05
 Reference value :  4.15106e-05
 Reference value :  4.15129e-05
 Reference value :  4.15211e-05
 Reference value :  4.16049e-05
 Reference value :  4.17501e-05
 Reference value :  4.17502e-05
 Reference value :  4.17503e-05
 Reference value :  4.17504e-05
 Reference value :  4.17510e-05
 Reference value :  4.17520e-05
 Reference value :  4.17533e-05
 Reference value :  4.17546e-05
 Reference value :  4.17560e-05
 Reference value :  4.17579e-05
 Reference value :  4.17654e-05
 Reference value :  4.17996e-05
 Reference value :  4.20000e-05
 Reference value :  4.20001e-05
 Reference value :  4.20001e-05
 Reference value :  4.20003e-05
 Reference value :  4.20013e-05
 Reference value :  4.20022e-05
 Reference value :  4.20034e-05
 Reference value :  4.20046e-05
 Reference value :  4.20058e-05
 Reference value :  4.20071e-05
 Reference value :  4.20090e-05
 Reference value :  4.20111e-05
 Reference value :  4.20233e-05
 Reference value :  4.21550e-05
 Reference value :  4.22501e-05
 Reference value :  4.22502e-05
 Reference value :  4.22504e-05
 Reference value :  4.22515e-05
 Reference value :  4.22525e-05
 Reference value :  4.22542e-05
 Reference value :  4.22572e-05
 Reference value :  4.22628e-05
 Reference value :  4.22939e-05
 Reference value :  4.24330e-05
 Reference value :  4.25000e-05
 Reference value :  4.25001e-05
 Reference value :  4.25002e-05
 Reference value :  4.25010e-05
 Reference value :  4.25021e-05
 Reference value :  4.25031e-05
 Reference value :  4.25044e-05
 Reference value :  4.25057e-05
 Reference value :  4.25070e-05
 Reference value :  4.25112e-05
 Reference value :  4.25272e-05
 Reference value :  4.25329e-05
 Reference value :  4.25368e-05
 Reference value :  4.25440e-05
 Reference value :  4.25493e-05
 Reference value :  4.25588e-05
 Reference value :  4.25793e-05
 Reference value :  4.26369e-05
 Reference value :  4.27234e-05
 Reference value :  4.27501e-05
 Reference value :  4.27502e-05
 Reference value :  4.27503e-05
 Reference value :  4.27504e-05
 Reference value :  4.27511e-05
 Reference value :  4.27520e-05
 Reference value :  4.27533e-05
 Reference value :  4.27546e-05
 Reference value :  4.27560e-05
 Reference value :  4.27577e-05
 Reference value :  4.27648e-05
 Reference value :  4.27974e-05
 Reference value :  4.29972e-05
 Reference value :  4.30000e-05
 Reference value :  4.30001e-05
 Reference value :  4.30002e-05
 Reference value :  4.30003e-05
 Reference value :  4.30013e-05
 Reference value :  4.30022e-05
 Reference value :  4.30040e-05
 Reference value :  4.30053e-05
 Reference value :  4.30074e-05
 Reference value :  4.30088e-05
 Reference value :  4.30131e-05
 Reference value :  4.30164e-05
 Reference value :  4.30204e-05
 Reference value :  4.30441e-05
 Reference value :  4.32501e-05
 Reference value :  4.32502e-05
 Reference value :  4.32502e-05
 Reference value :  4.32507e-05
 Reference value :  4.32520e-05
 Reference value :  4.32540e-05
 Reference value :  4.32553e-05
 Reference value :  4.32579e-05
 Reference value :  4.32713e-05
 Reference value :  4.33867e-05
 Reference value :  4.35001e-05
 Reference value :  4.35001e-05
 Reference value :  4.35004e-05
 Reference value :  4.35016e-05
 Reference value :  4.35026e-05
 Reference value :  4.35037e-05
 Reference value :  4.35057e-05
 Reference value :  4.35069e-05
 Reference value :  4.35086e-05
 Reference value :  4.35122e-05
 Reference value :  4.35137e-05
 Reference value :  4.35166e-05
 Reference value :  4.35193e-05
 Reference value :  4.35222e-05
 Reference value :  4.35307e-05
 Reference value :  4.35632e-05
 Reference value :  4.37465e-05
 Reference value :  4.37501e-05
 Reference value :  4.37502e-05
 Reference value :  4.37507e-05
 Reference value :  4.37515e-05
 Reference value :  4.37525e-05
 Reference value :  4.37540e-05
 Reference value :  4.37553e-05
 Reference value :  4.37569e-05
 Reference value :  4.37617e-05
 Reference value :  4.37706e-05
 Reference value :  4.37986e-05
 Reference value :  4.40000e-05
 Reference value :  4.40001e-05
 Reference value :  4.40001e-05
 Reference value :  4.40002e-05
 Reference value :  4.40005e-05
 Reference value :  4.40013e-05
 Reference value :  4.40022e-05
 Reference value :  4.40040e-05
 Reference value :  4.40053e-05
 Reference value :  4.40083e-05
 Reference value :  4.40102e-05
 Reference value :  4.40136e-05
 Reference value :  4.40890e-05
 Reference value :  4.42501e-05
 Reference value :  4.42502e-05
 Reference value :  4.42507e-05
 Reference value :  4.42526e-05
 Reference value :  4.42547e-05
 Reference value :  4.42570e-05
 Reference value :  4.42715e-05
 Reference value :  4.43845e-05
 Reference value :  4.45000e-05
 Reference value :  4.45001e-05
 Reference value :  4.45009e-05
 Reference value :  4.45022e-05
 Reference value :  4.45046e-05
 Reference value :  4.45064e-05
 Reference value :  4.45126e-05
 Reference value :  4.45154e-05
 Reference value :  4.45191e-05
 Reference value :  4.45234e-05
 Reference value :  4.45428e-05
 Reference value :  4.45691e-05
 Reference value :  4.45923e-05
 Reference value :  4.46090e-05
 Reference value :  4.46287e-05
 Reference value :  4.47175e-05
 Reference value :  4.47501e-05
 Reference value :  4.47502e-05
 Reference value :  4.47504e-05
 Reference value :  4.47520e-05
 Reference value :  4.47540e-05
 Reference value :  4.47560e-05
 Reference value :  4.47623e-05
 Reference value :  4.48878e-05
 Reference value :  4.50001e-05
 Reference value :  4.50003e-05
 Reference value :  4.50018e-05
 Reference value :  4.50041e-05
 Reference value :  4.50075e-05
 Reference value :  4.50106e-05
 Reference value :  4.50141e-05
 Reference value :  4.50663e-05
 Reference value :  4.52501e-05
 Reference value :  4.52502e-05
 Reference value :  4.52504e-05
 Reference value :  4.52515e-05
 Reference value :  4.52533e-05
 Reference value :  4.52546e-05
 Reference value :  4.52569e-05
 Reference value :  4.52599e-05
 Reference value :  4.52655e-05
 Reference value :  4.52987e-05
 Reference value :  4.55000e-05
 Reference value :  4.55001e-05
 Reference value :  4.55001e-05
 Reference value :  4.55003e-05
 Reference value :  4.55013e-05
 Reference value :  4.55022e-05
 Reference value :  4.55040e-05
 Reference value :  4.55046e-05
 Reference value :  4.55058e-05
 Reference value :  4.55071e-05
 Reference value :  4.55090e-05
 Reference value :  4.55115e-05
 Reference value :  4.55138e-05
 Reference value :  4.55163e-05
 Reference value :  4.55185e-05
 Reference value :  4.55211e-05
 Reference value :  4.55316e-05
 Reference value :  4.55394e-05
 Reference value :  4.55425e-05
 Reference value :  4.55472e-05
 Reference value :  4.55641e-05
 Reference value :  4.56109e-05
 Reference value :  4.57375e-05
 Reference value :  4.57501e-05
 Reference value :  4.57502e-05
 Reference value :  4.57507e-05
 Reference value :  4.57520e-05
 Reference value :  4.57533e-05
 Reference value :  4.57547e-05
 Reference value :  4.57560e-05
 Reference value :  4.57578e-05
 Reference value :  4.57652e-05
 Reference value :  4.58848e-05
 Reference value :  4.60003e-05
 Reference value :  4.60012e-05
 Reference value :  4.60020e-05
 Reference value :  4.60036e-05
 Reference value :  4.60049e-05
 Reference value :  4.60068e-05
 Reference value :  4.60076e-05
 Reference value :  4.60094e-05
 Reference value :  4.60128e-05
 Reference value :  4.60168e-05
 Reference value :  4.60407e-05
 Reference value :  4.62288e-05
 Reference value :  4.62501e-05
 Reference value :  4.62502e-05
 Reference value :  4.62503e-05
 Reference value :  4.62507e-05
 Reference value :  4.62515e-05
 Reference value :  4.62525e-05
 Reference value :  4.62546e-05
 Reference value :  4.62569e-05
 Reference value :  4.62649e-05
 Reference value :  4.65000e-05
 Reference value :  4.65001e-05
 Reference value :  4.65005e-05
 Reference value :  4.65013e-05
 Reference value :  4.65022e-05
 Reference value :  4.65040e-05
 Reference value :  4.65046e-05
 Reference value :  4.65058e-05
 Reference value :  4.65071e-05
 Reference value :  4.65126e-05
 Reference value :  4.65140e-05
 Reference value :  4.65154e-05
 Reference value :  4.65180e-05
 Reference value :  4.65191e-05
 Reference value :  4.65234e-05
 Reference value :  4.65340e-05
 Reference value :  4.65455e-05
 Reference value :  4.65543e-05
 Reference value :  4.65643e-05
 Reference value :  4.65824e-05
 Reference value :  4.66259e-05
 Reference value :  4.66808e-05
 Reference value :  4.67261e-05
 Reference value :  4.67471e-05
 Reference value :  4.67502e-05
 Reference value :  4.67503e-05
 Reference value :  4.67511e-05
 Reference value :  4.67526e-05
 Reference value :  4.67547e-05
 Reference value :  4.67569e-05
 Reference value :  4.67653e-05
 Reference value :  4.68307e-05
 Reference value :  4.70000e-05
 Reference value :  4.70001e-05
 Reference value :  4.70003e-05
 Reference value :  4.70013e-05
 Reference value :  4.70022e-05
 Reference value :  4.70040e-05
 Reference value :  4.70053e-05
 Reference value :  4.70073e-05
 Reference value :  4.70092e-05
 Reference value :  4.70112e-05
 Reference value :  4.70162e-05
 Reference value :  4.70893e-05
 Reference value :  4.72501e-05
 Reference value :  4.72502e-05
 Reference value :  4.72507e-05
 Reference value :  4.72520e-05
 Reference value :  4.72541e-05
[...]
 Reference value :  2.59385e-04
 Reference value :  2.59500e-04
 Reference value :  2.59500e-04
 Reference value :  2.59500e-04
 Reference value :  2.59501e-04
 Reference value :  2.59502e-04
 Reference value :  2.59504e-04
 Reference value :  2.59505e-04
 Reference value :  2.59507e-04
 Reference value :  2.59509e-04
 Reference value :  2.59511e-04
 Reference value :  2.59514e-04
 Reference value :  2.59550e-04
 Reference value :  2.59750e-04
 Reference value :  2.59750e-04
 Reference value :  2.59750e-04
 Reference value :  2.59751e-04
 Reference value :  2.59752e-04
 Reference value :  2.59752e-04
 Reference value :  2.59753e-04
 Reference value :  2.59755e-04
 Reference value :  2.59757e-04
 Reference value :  2.59762e-04
 Reference value :  2.59800e-04
 Reference value :  2.59978e-04
 Reference value :  2.60000e-04
 Reference value :  2.60000e-04
 Reference value :  2.60000e-04
 Reference value :  2.60001e-04
 Reference value :  2.60001e-04
 Reference value :  2.60002e-04
 Reference value :  2.60003e-04
 Reference value :  2.60005e-04
 Reference value :  2.60006e-04
 Reference value :  2.60007e-04
 Reference value :  2.60011e-04
 Reference value :  2.60014e-04
 Reference value :  2.60015e-04
 Reference value :  2.60018e-04
 Reference value :  2.60019e-04
 Reference value :  2.60022e-04
 Reference value :  2.60029e-04
 Reference value :  2.60039e-04
 Reference value :  2.60049e-04
 Reference value :  2.60060e-04
 Reference value :  2.60072e-04
 Reference value :  2.60106e-04
 Reference value :  2.60122e-04
 Reference value :  2.60154e-04
 Reference value :  2.60165e-04
 Reference value :  2.60173e-04
 Reference value :  2.60190e-04
 Reference value :  2.60248e-04
 Reference value :  2.60250e-04
 Reference value :  2.60250e-04
 Reference value :  2.60250e-04
 Reference value :  2.60251e-04
 Reference value :  2.60252e-04
 Reference value :  2.60253e-04
 Reference value :  2.60255e-04
 Reference value :  2.60256e-04
 Reference value :  2.60258e-04
 Reference value :  2.60271e-04
 Reference value :  2.60385e-04
 Reference value :  2.60500e-04
 Reference value :  2.60500e-04
 Reference value :  2.60500e-04
 Reference value :  2.60501e-04
 Reference value :  2.60502e-04
 Reference value :  2.60504e-04
 Reference value :  2.60505e-04
 Reference value :  2.60507e-04
 Reference value :  2.60509e-04
 Reference value :  2.60511e-04
 Reference value :  2.60516e-04
 Reference value :  2.60589e-04
 Reference value :  2.60750e-04
 Reference value :  2.60750e-04
 Reference value :  2.60750e-04
 Reference value :  2.60751e-04
 Reference value :  2.60752e-04
 Reference value :  2.60754e-04
 Reference value :  2.60755e-04
 Reference value :  2.60758e-04
 Reference value :  2.60766e-04
 Reference value :  2.60800e-04
 Reference value :  2.61000e-04
 Reference value :  2.61000e-04
 Reference value :  2.61000e-04
 Reference value :  2.61001e-04
 Reference value :  2.61001e-04
 Reference value :  2.61002e-04
 Reference value :  2.61003e-04
 Reference value :  2.61005e-04
 Reference value :  2.61006e-04
 Reference value :  2.61007e-04
 Reference value :  2.61011e-04
 Reference value :  2.61014e-04
 Reference value :  2.61015e-04
 Reference value :  2.61018e-04
 Reference value :  2.61020e-04
 Reference value :  2.61029e-04
 Reference value :  2.61037e-04
 Reference value :  2.61041e-04
 Reference value :  2.61047e-04
 Reference value :  2.61056e-04
 Reference value :  2.61075e-04
 Reference value :  2.61121e-04
 Reference value :  2.61231e-04
 Reference value :  2.61250e-04
 Reference value :  2.61250e-04
 Reference value :  2.61250e-04
 Reference value :  2.61252e-04
 Reference value :  2.61254e-04
 Reference value :  2.61257e-04
 Reference value :  2.61283e-04
 Reference value :  2.61366e-04
 Reference value :  2.61437e-04
 Reference value :  2.61500e-04
 Reference value :  2.61500e-04
 Reference value :  2.61501e-04
 Reference value :  2.61503e-04
 Reference value :  2.61505e-04
 Reference value :  2.61507e-04
 Reference value :  2.61510e-04
 Reference value :  2.61514e-04
 Reference value :  2.61589e-04
 Reference value :  2.61750e-04
 Reference value :  2.61750e-04
 Reference value :  2.61752e-04
 Reference value :  2.61754e-04
 Reference value :  2.61755e-04
 Reference value :  2.61760e-04
 Reference value :  2.61799e-04
 Reference value :  2.62000e-04
 Reference value :  2.62000e-04
 Reference value :  2.62000e-04
 Reference value :  2.62001e-04
 Reference value :  2.62002e-04
 Reference value :  2.62004e-04
 Reference value :  2.62005e-04
 Reference value :  2.62006e-04
 Reference value :  2.62013e-04
 Reference value :  2.62015e-04
 Reference value :  2.62019e-04
 Reference value :  2.62023e-04
 Reference value :  2.62032e-04
 Reference value :  2.62038e-04
 Reference value :  2.62047e-04
 Reference value :  2.62065e-04
 Reference value :  2.62115e-04
 Reference value :  2.62250e-04
 Reference value :  2.62250e-04
 Reference value :  2.62250e-04
 Reference value :  2.62251e-04
 Reference value :  2.62252e-04
 Reference value :  2.62254e-04
 Reference value :  2.62255e-04
 Reference value :  2.62258e-04
 Reference value :  2.62265e-04
 Reference value :  2.62386e-04
 Reference value :  2.62500e-04
 Reference value :  2.62500e-04
 Reference value :  2.62501e-04
 Reference value :  2.62502e-04
 Reference value :  2.62503e-04
 Reference value :  2.62506e-04
 Reference value :  2.62508e-04
 Reference value :  2.62509e-04
 Reference value :  2.62513e-04
 Reference value :  2.62528e-04
 Reference value :  2.62712e-04
 Reference value :  2.62750e-04
 Reference value :  2.62750e-04
 Reference value :  2.62751e-04
 Reference value :  2.62752e-04
 Reference value :  2.62753e-04
 Reference value :  2.62754e-04
 Reference value :  2.62755e-04
 Reference value :  2.62757e-04
 Reference value :  2.62760e-04
 Reference value :  2.62765e-04
 Reference value :  2.62799e-04
 Reference value :  2.62917e-04
 Reference value :  2.63000e-04
 Reference value :  2.63000e-04
 Reference value :  2.63001e-04
 Reference value :  2.63001e-04
 Reference value :  2.63002e-04
 Reference value :  2.63004e-04
 Reference value :  2.63005e-04
 Reference value :  2.63006e-04
 Reference value :  2.63006e-04
 Reference value :  2.63009e-04
 Reference value :  2.63011e-04
 Reference value :  2.63013e-04
 Reference value :  2.63015e-04
 Reference value :  2.63019e-04
 Reference value :  2.63024e-04
 Reference value :  2.63026e-04
 Reference value :  2.63031e-04
 Reference value :  2.63038e-04
 Reference value :  2.63059e-04
 Reference value :  2.63145e-04
 Reference value :  2.63250e-04
 Reference value :  2.63250e-04
 Reference value :  2.63250e-04
 Reference value :  2.63251e-04
 Reference value :  2.63252e-04
 Reference value :  2.63252e-04
 Reference value :  2.63253e-04
 Reference value :  2.63255e-04
 Reference value :  2.63257e-04
 Reference value :  2.63263e-04
 Reference value :  2.63280e-04
 Reference value :  2.63433e-04
 Reference value :  2.63500e-04
 Reference value :  2.63500e-04
 Reference value :  2.63500e-04
 Reference value :  2.63501e-04
 Reference value :  2.63502e-04
 Reference value :  2.63503e-04
 Reference value :  2.63504e-04
 Reference value :  2.63505e-04
 Reference value :  2.63506e-04
 Reference value :  2.63508e-04
 Reference value :  2.63515e-04
 Reference value :  2.63522e-04
 Reference value :  2.63527e-04
 Reference value :  2.63533e-04
 Reference value :  2.63538e-04
 Reference value :  2.63542e-04
 Reference value :  2.63545e-04
 Reference value :  2.63552e-04
 Reference value :  2.63558e-04
 Reference value :  2.63572e-04
 Reference value :  2.63612e-04
 Reference value :  2.63750e-04
 Reference value :  2.63750e-04
 Reference value :  2.63750e-04
 Reference value :  2.63751e-04
 Reference value :  2.63752e-04
 Reference value :  2.63754e-04
 Reference value :  2.63755e-04
 Reference value :  2.63757e-04
 Reference value :  2.63762e-04
 Reference value :  2.63798e-04
 Reference value :  2.63989e-04
 Reference value :  2.64000e-04
 Reference value :  2.64000e-04
 Reference value :  2.64000e-04
 Reference value :  2.64001e-04
 Reference value :  2.64001e-04
 Reference value :  2.64002e-04
 Reference value :  2.64003e-04
 Reference value :  2.64005e-04
 Reference value :  2.64006e-04
 Reference value :  2.64009e-04
 Reference value :  2.64012e-04
 Reference value :  2.64015e-04
 Reference value :  2.64016e-04
 Reference value :  2.64020e-04
 Reference value :  2.64033e-04
 Reference value :  2.64100e-04
 Reference value :  2.64250e-04
 Reference value :  2.64250e-04
 Reference value :  2.64250e-04
 Reference value :  2.64250e-04
 Reference value :  2.64251e-04
 Reference value :  2.64252e-04
 Reference value :  2.64253e-04
 Reference value :  2.64255e-04
 Reference value :  2.64257e-04
 Reference value :  2.64265e-04
 Reference value :  2.64332e-04
 Reference value :  2.64500e-04
 Reference value :  2.64500e-04
 Reference value :  2.64500e-04
 Reference value :  2.64501e-04
 Reference value :  2.64502e-04
 Reference value :  2.64504e-04
 Reference value :  2.64505e-04
 Reference value :  2.64506e-04
 Reference value :  2.64509e-04
 Reference value :  2.64513e-04
 Reference value :  2.64515e-04
 Reference value :  2.64519e-04
 Reference value :  2.64523e-04
 Reference value :  2.64558e-04
 Reference value :  2.64750e-04
 Reference value :  2.64750e-04
 Reference value :  2.64750e-04
 Reference value :  2.64751e-04
 Reference value :  2.64752e-04
 Reference value :  2.64754e-04
 Reference value :  2.64755e-04
 Reference value :  2.64757e-04
 Reference value :  2.64762e-04
 Reference value :  2.64781e-04
 Reference value :  2.64886e-04
 Reference value :  2.65000e-04
 Reference value :  2.65000e-04
 Reference value :  2.65000e-04
 Reference value :  2.65001e-04
 Reference value :  2.65001e-04
 Reference value :  2.65002e-04
 Reference value :  2.65004e-04
 Reference value :  2.65005e-04
 Reference value :  2.65007e-04
 Reference value :  2.65009e-04
 Reference value :  2.65011e-04
 Reference value :  2.65016e-04
 Reference value :  2.65089e-04
 Reference value :  2.65250e-04
 Reference value :  2.65250e-04
 Reference value :  2.65250e-04
 Reference value :  2.65250e-04
 Reference value :  2.65252e-04
 Reference value :  2.65253e-04
 Reference value :  2.65254e-04
 Reference value :  2.65255e-04
 Reference value :  2.65256e-04
 Reference value :  2.65258e-04
 Reference value :  2.65266e-04
 Reference value :  2.65300e-04
 Reference value :  2.65478e-04
 Reference value :  2.65500e-04
 Reference value :  2.65500e-04
 Reference value :  2.65500e-04
 Reference value :  2.65501e-04
 Reference value :  2.65501e-04
 Reference value :  2.65502e-04
 Reference value :  2.65503e-04
 Reference value :  2.65505e-04
 Reference value :  2.65506e-04
 Reference value :  2.65507e-04
 Reference value :  2.65511e-04
 Reference value :  2.65514e-04
 Reference value :  2.65517e-04
 Reference value :  2.65519e-04
 Reference value :  2.65523e-04
 Reference value :  2.65543e-04
 Reference value :  2.65631e-04
 Reference value :  2.65750e-04
 Reference value :  2.65750e-04
 Reference value :  2.65750e-04
 Reference value :  2.65751e-04
 Reference value :  2.65752e-04
 Reference value :  2.65753e-04
 Reference value :  2.65754e-04
 Reference value :  2.65755e-04
 Reference value :  2.65757e-04
 Reference value :  2.65762e-04
 Reference value :  2.65830e-04
 Reference value :  2.66000e-04
 Reference value :  2.66000e-04
 Reference value :  2.66000e-04
 Reference value :  2.66001e-04
 Reference value :  2.66002e-04
 Reference value :  2.66004e-04
 Reference value :  2.66005e-04
 Reference value :  2.66007e-04
 Reference value :  2.66009e-04
 Reference value :  2.66011e-04
 Reference value :  2.66016e-04
 Reference value :  2.66089e-04
 Reference value :  2.66250e-04
 Reference value :  2.66250e-04
 Reference value :  2.66250e-04
 Reference value :  2.66251e-04
 Reference value :  2.66252e-04
 Reference value :  2.66254e-04
 Reference value :  2.66255e-04
 Reference value :  2.66258e-04
 Reference value :  2.66272e-04
 Reference value :  2.66331e-04
 Reference value :  2.66500e-04
 Reference value :  2.66500e-04
 Reference value :  2.66500e-04
 Reference value :  2.66501e-04
 Reference value :  2.66502e-04
 Reference value :  2.66502e-04
 Reference value :  2.66504e-04
 Reference value :  2.66505e-04
 Reference value :  2.66506e-04
 Reference value :  2.66509e-04
 Reference value :  2.66514e-04
 Reference value :  2.66518e-04
 Reference value :  2.66522e-04
 Reference value :  2.66533e-04
 Reference value :  2.66546e-04
 Reference value :  2.66560e-04
 Reference value :  2.66587e-04
 Reference value :  2.66703e-04
 Reference value :  2.66750e-04
 Reference value :  2.66750e-04
 Reference value :  2.66752e-04
 Reference value :  2.66754e-04
 Reference value :  2.66756e-04
 Reference value :  2.66760e-04
 Reference value :  2.66831e-04
 Reference value :  2.67000e-04
 Reference value :  2.67000e-04
 Reference value :  2.67001e-04
 Reference value :  2.67002e-04
 Reference value :  2.67005e-04
 Reference value :  2.67008e-04
 Reference value :  2.67009e-04
 Reference value :  2.67014e-04
 Reference value :  2.67028e-04
 Reference value :  2.67250e-04
 Reference value :  2.67250e-04
 Reference value :  2.67250e-04
 Reference value :  2.67251e-04
 Reference value :  2.67252e-04
 Reference value :  2.67255e-04
 Reference value :  2.67258e-04
 Reference value :  2.67263e-04
 Reference value :  2.67275e-04
 Reference value :  2.67417e-04
 Reference value :  2.67500e-04
 Reference value :  2.67500e-04
 Reference value :  2.67500e-04
 Reference value :  2.67501e-04
 Reference value :  2.67502e-04
 Reference value :  2.67503e-04
 Reference value :  2.67505e-04
 Reference value :  2.67506e-04
 Reference value :  2.67507e-04
 Reference value :  2.67511e-04
 Reference value :  2.67514e-04
 Reference value :  2.67516e-04
 Reference value :  2.67518e-04
 Reference value :  2.67520e-04
 Reference value :  2.67521e-04
 Reference value :  2.67524e-04
 Reference value :  2.67529e-04
 Reference value :  2.67557e-04
 Reference value :  2.67613e-04
 Reference value :  2.67651e-04
 Reference value :  2.67750e-04
 Reference value :  2.67750e-04
 Reference value :  2.67750e-04
 Reference value :  2.67752e-04
 Reference value :  2.67753e-04
 Reference value :  2.67754e-04
 Reference value :  2.67755e-04
 Reference value :  2.67757e-04
 Reference value :  2.67762e-04
 Reference value :  2.67798e-04
 Reference value :  2.68000e-04
 Reference value :  2.68000e-04
 Reference value :  2.68000e-04
 Reference value :  2.68000e-04
 Reference value :  2.68001e-04
 Reference value :  2.68002e-04
 Reference value :  2.68003e-04
 Reference value :  2.68005e-04
 Reference value :  2.68006e-04
 Reference value :  2.68008e-04
 Reference value :  2.68010e-04
 Reference value :  2.68012e-04
 Reference value :  2.68021e-04
 Reference value :  2.68250e-04
 Reference value :  2.68250e-04
 Reference value :  2.68250e-04
 Reference value :  2.68251e-04
 Reference value :  2.68252e-04
 Reference value :  2.68254e-04
 Reference value :  2.68256e-04
 Reference value :  2.68266e-04
 Reference value :  2.68282e-04
 Reference value :  2.68478e-04
 Reference value :  2.68500e-04
 Reference value :  2.68500e-04
 Reference value :  2.68500e-04
 Reference value :  2.68501e-04
 Reference value :  2.68503e-04
 Reference value :  2.68505e-04
 Reference value :  2.68506e-04
 Reference value :  2.68513e-04
 Reference value :  2.68515e-04
 Reference value :  2.68519e-04
 Reference value :  2.68525e-04
 Reference value :  2.68539e-04
 Reference value :  2.68555e-04
 Reference value :  2.68580e-04
 Reference value :  2.68604e-04
 Reference value :  2.68628e-04
 Reference value :  2.68637e-04
 Reference value :  2.68651e-04
 Reference value :  2.68664e-04
 Reference value :  2.68750e-04
 Reference value :  2.68750e-04
 Reference value :  2.68751e-04
 Reference value :  2.68752e-04
 Reference value :  2.68754e-04
 Reference value :  2.68755e-04
 Reference value :  2.68757e-04
 Reference value :  2.68762e-04
 Reference value :  2.68885e-04
 Reference value :  2.68981e-04
 Reference value :  2.69000e-04
 Reference value :  2.69000e-04
 Reference value :  2.69001e-04
 Reference value :  2.69003e-04
 Reference value :  2.69005e-04
 Reference value :  2.69007e-04
 Reference value :  2.69009e-04
 Reference value :  2.69012e-04
 Reference value :  2.69050e-04
 Reference value :  2.69250e-04
 Reference value :  2.69250e-04
 Reference value :  2.69251e-04
 Reference value :  2.69253e-04
 Reference value :  2.69255e-04
 Reference value :  2.69258e-04
 Reference value :  2.69282e-04
 Reference value :  2.69500e-04
 Reference value :  2.69500e-04
 Reference value :  2.69500e-04
 Reference value :  2.69501e-04
 Reference value :  2.69502e-04
 Reference value :  2.69503e-04
 Reference value :  2.69505e-04
 Reference value :  2.69506e-04
 Reference value :  2.69507e-04
 Reference value :  2.69511e-04
 Reference value :  2.69514e-04
 Reference value :  2.69515e-04
 Reference value :  2.69518e-04
 Reference value :  2.69519e-04
 Reference value :  2.69523e-04
 Reference value :  2.69537e-04
 Reference value :  2.69540e-04
 Reference value :  2.69543e-04
 Reference value :  2.69550e-04
 Reference value :  2.69560e-04
 Reference value :  2.69609e-04
 Reference value :  2.69700e-04
 Reference value :  2.69746e-04
 Reference value :  2.69750e-04
 Reference value :  2.69750e-04
 Reference value :  2.69750e-04
 Reference value :  2.69751e-04
 Reference value :  2.69752e-04
 Reference value :  2.69754e-04
 Reference value :  2.69755e-04
 Reference value :  2.69756e-04
 Reference value :  2.69758e-04
 Reference value :  2.69765e-04
 Reference value :  2.69830e-04
 Reference value :  2.70000e-04
 Reference value :  2.70000e-04
 Reference value :  2.70000e-04
 Reference value :  2.70000e-04
 Reference value :  2.70001e-04
 Reference value :  2.70002e-04
 Reference value :  2.70004e-04
 Reference value :  2.70005e-04
 Reference value :  2.70007e-04
 Reference value :  2.70009e-04
 Reference value :  2.70011e-04
 Reference value :  2.70014e-04
 Reference value :  2.70089e-04
 Reference value :  2.70167e-04
 Reference value :  2.70250e-04
 Reference value :  2.70250e-04
 Reference value :  2.70250e-04
 Reference value :  2.70252e-04
 Reference value :  2.70253e-04
 Reference value :  2.70255e-04
 Reference value :  2.70258e-04
 Reference value :  2.70272e-04
 Reference value :  2.70500e-04
 Reference value :  2.70500e-04
 Reference value :  2.70500e-04
 Reference value :  2.70501e-04
 Reference value :  2.70502e-04
 Reference value :  2.70503e-04
 Reference value :  2.70505e-04
 Reference value :  2.70506e-04
 Reference value :  2.70508e-04
 Reference value :  2.70513e-04
 Reference value :  2.70514e-04
 Reference value :  2.70517e-04
 Reference value :  2.70520e-04
 Reference value :  2.70530e-04
 Reference value :  2.70539e-04
 Reference value :  2.70546e-04
 Reference value :  2.70572e-04
 Reference value :  2.70750e-04
 Reference value :  2.70750e-04
 Reference value :  2.70751e-04
 Reference value :  2.70753e-04
 Reference value :  2.70756e-04
 Reference value :  2.70783e-04
 Reference value :  2.71000e-04
 Reference value :  2.71000e-04
 Reference value :  2.71002e-04
 Reference value :  2.71005e-04
 Reference value :  2.71008e-04
 Reference value :  2.71012e-04
 Reference value :  2.71043e-04
 Reference value :  2.71250e-04
 Reference value :  2.71250e-04
 Reference value :  2.71253e-04
 Reference value :  2.71255e-04
 Reference value :  2.71260e-04
 Reference value :  2.71299e-04
 Reference value :  2.71500e-04
 Reference value :  2.71500e-04
 Reference value :  2.71502e-04
 Reference value :  2.71505e-04
 Reference value :  2.71506e-04
 Reference value :  2.71511e-04
 Reference value :  2.71515e-04
 Reference value :  2.71528e-04
 Reference value :  2.71750e-04
 Reference value :  2.71750e-04
 Reference value :  2.71752e-04
 Reference value :  2.71757e-04
 Reference value :  2.71781e-04
No. of Data Rows : 39917
ngspice-44 done
