
Note: Compatibility modes selected: hs a


Circuit: ** sch_path: /home/ece/cace/sar-adc-using-sky130-pdk/runs/run_2025-09-12_18-28-15/parameters/sndr/run_0/sndr_enob_fom.sch

option SCALE: Scale is set to 1e-06 for instance and model parameters
option SCALE: Scale is set to 1e-06 for instance and model parameters
option SCALE: Scale is set to 1e-06 for instance and model parameters
option SCALE: Scale is set to 1e-06 for instance and model parameters
Doing analysis at TEMP = 27.000000 and TNOM = 27.000000

Using KLU as Direct Linear Solver
Operating point simulation skipped by 'uic',
  now using transient initial conditions.
 Reference value :  1.00000e-12
 Reference value :  1.02772e-12
 Reference value :  1.08316e-12
 Reference value :  1.19404e-12
 Reference value :  1.33846e-12
 Reference value :  1.62730e-12
 Reference value :  2.20497e-12
 Reference value :  3.04301e-12
 Reference value :  3.94914e-12
 Reference value :  5.16892e-12
 Reference value :  6.91372e-12
 Reference value :  1.00949e-11
 Reference value :  1.37995e-11
 Reference value :  2.05195e-11
 Reference value :  2.75205e-11
 Reference value :  3.64411e-11
 Reference value :  4.75283e-11
 Reference value :  6.41572e-11
 Reference value :  8.41734e-11
 Reference value :  1.00000e-10
 Reference value :  1.01325e-10
 Reference value :  1.03974e-10
 Reference value :  1.09272e-10
 Reference value :  1.19868e-10
 Reference value :  1.41061e-10
 Reference value :  1.83447e-10
 Reference value :  2.68218e-10
 Reference value :  4.19795e-10
 Reference value :  5.90930e-10
 Reference value :  8.64359e-10
 Reference value :  1.24712e-09
 Reference value :  1.76148e-09
 Reference value :  2.57240e-09
 Reference value :  3.31062e-09
 Reference value :  4.38597e-09
 Reference value :  5.19775e-09
 Reference value :  6.09591e-09
 Reference value :  7.42164e-09
 Reference value :  8.62309e-09
 Reference value :  1.00354e-08
 Reference value :  1.11604e-08
 Reference value :  1.21517e-08
 Reference value :  1.30525e-08
 Reference value :  1.39986e-08
 Reference value :  1.52986e-08
 Reference value :  1.71284e-08
 Reference value :  2.00511e-08
 Reference value :  2.34506e-08
 Reference value :  2.69802e-08
 Reference value :  3.04659e-08
 Reference value :  3.41725e-08
 Reference value :  3.80924e-08
 Reference value :  4.21586e-08
 Reference value :  5.02909e-08
 Reference value :  6.02562e-08
 Reference value :  7.81804e-08
 Reference value :  1.13132e-07
 Reference value :  1.77704e-07
 Reference value :  2.48145e-07
 Reference value :  2.50100e-07
 Reference value :  2.50110e-07
 Reference value :  2.50130e-07
 Reference value :  2.50170e-07
 Reference value :  2.50200e-07
 Reference value :  2.50201e-07
 Reference value :  2.50202e-07
 Reference value :  2.50204e-07
 Reference value :  2.50208e-07
 Reference value :  2.50216e-07
 Reference value :  2.50233e-07
 Reference value :  2.50267e-07
 Reference value :  2.50335e-07
 Reference value :  2.50428e-07
 Reference value :  2.50611e-07
 Reference value :  2.50792e-07
 Reference value :  2.51135e-07
 Reference value :  2.51558e-07
 Reference value :  2.52259e-07
 Reference value :  2.52900e-07
 Reference value :  2.53739e-07
 Reference value :  2.54754e-07
 Reference value :  2.55923e-07
 Reference value :  2.57000e-07
 Reference value :  2.58032e-07
 Reference value :  2.59197e-07
 Reference value :  2.60299e-07
 Reference value :  2.62113e-07
 Reference value :  2.64722e-07
 Reference value :  2.67421e-07
 Reference value :  2.72043e-07
 Reference value :  2.78806e-07
 Reference value :  2.92333e-07
 Reference value :  3.19385e-07
 Reference value :  3.47656e-07
 Reference value :  3.71569e-07
 Reference value :  3.87838e-07
 Reference value :  3.98537e-07
 Reference value :  4.07419e-07
 Reference value :  4.16204e-07
 Reference value :  4.23520e-07
 Reference value :  4.31096e-07
 Reference value :  4.42371e-07
 Reference value :  4.56652e-07
 Reference value :  4.78857e-07
 Reference value :  5.00000e-07
 Reference value :  5.00010e-07
 Reference value :  5.00030e-07
 Reference value :  5.00070e-07
 Reference value :  5.00100e-07
 Reference value :  5.00104e-07
 Reference value :  5.00113e-07
 Reference value :  5.00130e-07
 Reference value :  5.00164e-07
 Reference value :  5.00232e-07
 Reference value :  5.00369e-07
 Reference value :  5.00560e-07
 Reference value :  5.00941e-07
 Reference value :  5.01536e-07
 Reference value :  5.02163e-07
 Reference value :  5.02794e-07
 Reference value :  5.03567e-07
 Reference value :  5.04310e-07
 Reference value :  5.05201e-07
 Reference value :  5.06146e-07
 Reference value :  5.07102e-07
 Reference value :  5.08498e-07
 Reference value :  5.09797e-07
 Reference value :  5.12396e-07
 Reference value :  5.15598e-07
 Reference value :  5.17896e-07
 Reference value :  5.20466e-07
 Reference value :  5.23158e-07
 Reference value :  5.25910e-07
 Reference value :  5.29137e-07
 Reference value :  5.34624e-07
 Reference value :  5.42172e-07
 Reference value :  5.52880e-07
 Reference value :  5.74297e-07
 Reference value :  6.05140e-07
 Reference value :  6.66091e-07
 Reference value :  7.50100e-07
 Reference value :  7.50110e-07
 Reference value :  7.50130e-07
 Reference value :  7.50170e-07
 Reference value :  7.50200e-07
 Reference value :  7.50201e-07
 Reference value :  7.50202e-07
 Reference value :  7.50205e-07
 Reference value :  7.50211e-07
 Reference value :  7.50223e-07
 Reference value :  7.50248e-07
 Reference value :  7.50296e-07
 Reference value :  7.50393e-07
 Reference value :  7.50586e-07
 Reference value :  7.50971e-07
 Reference value :  7.51562e-07
 Reference value :  7.52220e-07
 Reference value :  7.52980e-07
 Reference value :  7.53822e-07
 Reference value :  7.54912e-07
 Reference value :  7.55805e-07
 Reference value :  7.56866e-07
 Reference value :  7.57770e-07
 Reference value :  7.58755e-07
 Reference value :  7.59868e-07
 Reference value :  7.61120e-07
 Reference value :  7.62376e-07
 Reference value :  7.64255e-07
 Reference value :  7.66146e-07
 Reference value :  7.68946e-07
 Reference value :  7.72199e-07
 Reference value :  7.77132e-07
 Reference value :  7.86318e-07
 Reference value :  7.98804e-07
 Reference value :  8.21147e-07
 Reference value :  8.63493e-07
 Reference value :  9.38913e-07
 Reference value :  1.00000e-06
 Reference value :  1.00001e-06
 Reference value :  1.00003e-06
 Reference value :  1.00007e-06
 Reference value :  1.00010e-06
 Reference value :  1.00010e-06
 Reference value :  1.00011e-06
 Reference value :  1.00013e-06
 Reference value :  1.00016e-06
 Reference value :  1.00023e-06
 Reference value :  1.00037e-06
 Reference value :  1.00056e-06
 Reference value :  1.00094e-06
 Reference value :  1.00154e-06
 Reference value :  1.00216e-06
 Reference value :  1.00284e-06
 Reference value :  1.00356e-06
 Reference value :  1.00431e-06
 Reference value :  1.00515e-06
 Reference value :  1.00609e-06
 Reference value :  1.00693e-06
 Reference value :  1.00779e-06
 Reference value :  1.00863e-06
 Reference value :  1.00950e-06
 Reference value :  1.01040e-06
 Reference value :  1.01174e-06
 Reference value :  1.01298e-06
 Reference value :  1.01529e-06
 Reference value :  1.01758e-06
 Reference value :  1.01940e-06
 Reference value :  1.02139e-06
 Reference value :  1.02329e-06
 Reference value :  1.02524e-06
 Reference value :  1.02702e-06
 Reference value :  1.02883e-06
 Reference value :  1.03053e-06
 Reference value :  1.03268e-06
 Reference value :  1.03502e-06
 Reference value :  1.03786e-06
 Reference value :  1.04210e-06
 Reference value :  1.04821e-06
 Reference value :  1.05797e-06
 Reference value :  1.07379e-06
 Reference value :  1.09955e-06
 Reference value :  1.14289e-06
 Reference value :  1.20609e-06
 Reference value :  1.25010e-06
 Reference value :  1.25011e-06
 Reference value :  1.25013e-06
 Reference value :  1.25017e-06
 Reference value :  1.25020e-06
 Reference value :  1.25020e-06
 Reference value :  1.25020e-06
 Reference value :  1.25021e-06
 Reference value :  1.25021e-06
 Reference value :  1.25022e-06
 Reference value :  1.25025e-06
 Reference value :  1.25030e-06
 Reference value :  1.25039e-06
 Reference value :  1.25059e-06
 Reference value :  1.25093e-06
 Reference value :  1.25155e-06
 Reference value :  1.25217e-06
 Reference value :  1.25296e-06
 Reference value :  1.25376e-06
 Reference value :  1.25484e-06
 Reference value :  1.25576e-06
 Reference value :  1.25682e-06
 Reference value :  1.25795e-06
 Reference value :  1.25899e-06
 Reference value :  1.26082e-06
 Reference value :  1.26254e-06
 Reference value :  1.26537e-06
 Reference value :  1.26886e-06
 Reference value :  1.27240e-06
 Reference value :  1.27502e-06
 Reference value :  1.27754e-06
 Reference value :  1.27956e-06
 Reference value :  1.28197e-06
 Reference value :  1.28562e-06
 Reference value :  1.28962e-06
 Reference value :  1.29601e-06
 Reference value :  1.30524e-06
 Reference value :  1.31356e-06
 Reference value :  1.32867e-06
 Reference value :  1.34826e-06
 Reference value :  1.38213e-06
 Reference value :  1.43687e-06
 Reference value :  1.50000e-06
 Reference value :  1.50001e-06
 Reference value :  1.50003e-06
 Reference value :  1.50007e-06
 Reference value :  1.50010e-06
 Reference value :  1.50010e-06
 Reference value :  1.50011e-06
 Reference value :  1.50013e-06
 Reference value :  1.50016e-06
 Reference value :  1.50023e-06
 Reference value :  1.50037e-06
 Reference value :  1.50055e-06
 Reference value :  1.50092e-06
 Reference value :  1.50160e-06
 Reference value :  1.50223e-06
 Reference value :  1.50291e-06
 Reference value :  1.50363e-06
 Reference value :  1.50438e-06
 Reference value :  1.50524e-06
 Reference value :  1.50616e-06
 Reference value :  1.50719e-06
 Reference value :  1.50852e-06
 Reference value :  1.50991e-06
 Reference value :  1.51148e-06
 Reference value :  1.51304e-06
 Reference value :  1.51463e-06
 Reference value :  1.51659e-06
 Reference value :  1.51845e-06
 Reference value :  1.52081e-06
 Reference value :  1.52294e-06
 Reference value :  1.52721e-06
 Reference value :  1.53574e-06
 Reference value :  1.54870e-06
 Reference value :  1.57463e-06
 Reference value :  1.62649e-06
 Reference value :  1.73019e-06
 Reference value :  1.75010e-06
 Reference value :  1.75011e-06
 Reference value :  1.75013e-06
 Reference value :  1.75017e-06
 Reference value :  1.75020e-06
 Reference value :  1.75020e-06
 Reference value :  1.75020e-06
 Reference value :  1.75021e-06
 Reference value :  1.75021e-06
 Reference value :  1.75022e-06
 Reference value :  1.75025e-06
 Reference value :  1.75030e-06
 Reference value :  1.75039e-06
 Reference value :  1.75059e-06
 Reference value :  1.75093e-06
 Reference value :  1.75155e-06
 Reference value :  1.75216e-06
 Reference value :  1.75295e-06
 Reference value :  1.75376e-06
 Reference value :  1.75483e-06
 Reference value :  1.75576e-06
 Reference value :  1.75682e-06
 Reference value :  1.75776e-06
 Reference value :  1.75876e-06
 Reference value :  1.75988e-06
 Reference value :  1.76115e-06
 Reference value :  1.76369e-06
 Reference value :  1.76649e-06
 Reference value :  1.77098e-06
 Reference value :  1.77702e-06
 Reference value :  1.78909e-06
 Reference value :  1.81322e-06
 Reference value :  1.86150e-06
 Reference value :  1.95805e-06
 Reference value :  2.00000e-06
 Reference value :  2.00001e-06
 Reference value :  2.00003e-06
 Reference value :  2.00007e-06
 Reference value :  2.00010e-06
 Reference value :  2.00010e-06
 Reference value :  2.00011e-06
 Reference value :  2.00013e-06
 Reference value :  2.00016e-06
 Reference value :  2.00023e-06
 Reference value :  2.00037e-06
 Reference value :  2.00055e-06
 Reference value :  2.00092e-06
 Reference value :  2.00160e-06
 Reference value :  2.00223e-06
 Reference value :  2.00291e-06
 Reference value :  2.00363e-06
 Reference value :  2.00439e-06
 Reference value :  2.00523e-06
 Reference value :  2.00615e-06
 Reference value :  2.00717e-06
 Reference value :  2.00818e-06
 Reference value :  2.00924e-06
 Reference value :  2.01025e-06
 Reference value :  2.01134e-06
 Reference value :  2.01279e-06
 Reference value :  2.01461e-06
 Reference value :  2.01757e-06
 Reference value :  2.02043e-06
 Reference value :  2.02282e-06
 Reference value :  2.02486e-06
 Reference value :  2.02692e-06
 Reference value :  2.02893e-06
 Reference value :  2.03101e-06
 Reference value :  2.03338e-06
 Reference value :  2.03588e-06
 Reference value :  2.03883e-06
 Reference value :  2.04329e-06
 Reference value :  2.04944e-06
 Reference value :  2.05937e-06
 Reference value :  2.07521e-06
 Reference value :  2.09208e-06
 Reference value :  2.10763e-06
 Reference value :  2.11900e-06
 Reference value :  2.12992e-06
 Reference value :  2.13683e-06
 Reference value :  2.14608e-06
 Reference value :  2.15475e-06
 Reference value :  2.16624e-06
 Reference value :  2.18552e-06
 Reference value :  2.20773e-06
 Reference value :  2.24472e-06
 Reference value :  2.25010e-06
 Reference value :  2.25011e-06
 Reference value :  2.25013e-06
 Reference value :  2.25017e-06
 Reference value :  2.25020e-06
 Reference value :  2.25020e-06
 Reference value :  2.25020e-06
 Reference value :  2.25021e-06
 Reference value :  2.25021e-06
 Reference value :  2.25022e-06
 Reference value :  2.25025e-06
 Reference value :  2.25030e-06
 Reference value :  2.25039e-06
 Reference value :  2.25059e-06
 Reference value :  2.25092e-06
 Reference value :  2.25154e-06
 Reference value :  2.25216e-06
 Reference value :  2.25295e-06
 Reference value :  2.25375e-06
 Reference value :  2.25483e-06
 Reference value :  2.25571e-06
 Reference value :  2.25674e-06
 Reference value :  2.25773e-06
 Reference value :  2.25875e-06
 Reference value :  2.26048e-06
 Reference value :  2.26209e-06
 Reference value :  2.26496e-06
 Reference value :  2.26810e-06
 Reference value :  2.27317e-06
 Reference value :  2.28277e-06
 Reference value :  2.30196e-06
 Reference value :  2.33841e-06
 Reference value :  2.41132e-06
 Reference value :  2.49731e-06
 Reference value :  2.50000e-06
 Reference value :  2.50001e-06
 Reference value :  2.50003e-06
 Reference value :  2.50007e-06
 Reference value :  2.50010e-06
 Reference value :  2.50010e-06
 Reference value :  2.50011e-06
 Reference value :  2.50013e-06
 Reference value :  2.50016e-06
 Reference value :  2.50023e-06
 Reference value :  2.50037e-06
 Reference value :  2.50055e-06
 Reference value :  2.50092e-06
 Reference value :  2.50160e-06
 Reference value :  2.50223e-06
 Reference value :  2.50286e-06
 Reference value :  2.50357e-06
 Reference value :  2.50431e-06
 Reference value :  2.50516e-06
 Reference value :  2.50607e-06
 Reference value :  2.50711e-06
 Reference value :  2.50845e-06
 Reference value :  2.50982e-06
 Reference value :  2.51139e-06
 Reference value :  2.51280e-06
 Reference value :  2.51427e-06
 Reference value :  2.51632e-06
 Reference value :  2.51822e-06
 Reference value :  2.52033e-06
 Reference value :  2.52308e-06
 Reference value :  2.52648e-06
 Reference value :  2.53212e-06
 Reference value :  2.54063e-06
 Reference value :  2.55512e-06
 Reference value :  2.58010e-06
 Reference value :  2.62278e-06
 Reference value :  2.70231e-06
 Reference value :  2.75010e-06
 Reference value :  2.75011e-06
 Reference value :  2.75013e-06
 Reference value :  2.75017e-06
 Reference value :  2.75020e-06
 Reference value :  2.75020e-06
 Reference value :  2.75020e-06
 Reference value :  2.75021e-06
 Reference value :  2.75021e-06
 Reference value :  2.75022e-06
 Reference value :  2.75025e-06
 Reference value :  2.75030e-06
 Reference value :  2.75040e-06
 Reference value :  2.75059e-06
 Reference value :  2.75094e-06
 Reference value :  2.75155e-06
 Reference value :  2.75218e-06
 Reference value :  2.75295e-06
 Reference value :  2.75377e-06
 Reference value :  2.75484e-06
 Reference value :  2.75575e-06
 Reference value :  2.75682e-06
 Reference value :  2.75775e-06
 Reference value :  2.75874e-06
 Reference value :  2.75988e-06
 Reference value :  2.76115e-06
 Reference value :  2.76246e-06
 Reference value :  2.76423e-06
 Reference value :  2.76650e-06
 Reference value :  2.76925e-06
 Reference value :  2.77296e-06
 Reference value :  2.77814e-06
 Reference value :  2.78849e-06
 Reference value :  2.80735e-06
 Reference value :  2.84507e-06
 Reference value :  2.92051e-06
 Reference value :  3.00000e-06
 Reference value :  3.00001e-06
 Reference value :  3.00003e-06
 Reference value :  3.00007e-06
 Reference value :  3.00010e-06
 Reference value :  3.00010e-06
 Reference value :  3.00011e-06
 Reference value :  3.00013e-06
 Reference value :  3.00016e-06
 Reference value :  3.00023e-06
 Reference value :  3.00037e-06
 Reference value :  3.00055e-06
 Reference value :  3.00092e-06
 Reference value :  3.00160e-06
 Reference value :  3.00223e-06
 Reference value :  3.00291e-06
 Reference value :  3.00362e-06
 Reference value :  3.00438e-06
 Reference value :  3.00522e-06
 Reference value :  3.00612e-06
 Reference value :  3.00707e-06
 Reference value :  3.00793e-06
 Reference value :  3.00885e-06
 Reference value :  3.00983e-06
 Reference value :  3.01077e-06
 Reference value :  3.01210e-06
 Reference value :  3.01350e-06
 Reference value :  3.01566e-06
 Reference value :  3.01721e-06
 Reference value :  3.01892e-06
 Reference value :  3.02050e-06
 Reference value :  3.02230e-06
 Reference value :  3.02398e-06
 Reference value :  3.02549e-06
 Reference value :  3.02721e-06
 Reference value :  3.02871e-06
 Reference value :  3.03029e-06
 Reference value :  3.03218e-06
 Reference value :  3.03453e-06
 Reference value :  3.03716e-06
 Reference value :  3.04142e-06
 Reference value :  3.04805e-06
 Reference value :  3.05862e-06
 Reference value :  3.07688e-06
 Reference value :  3.09659e-06
 Reference value :  3.11227e-06
 Reference value :  3.12207e-06
 Reference value :  3.13273e-06
 Reference value :  3.14644e-06
 Reference value :  3.16012e-06
 Reference value :  3.17935e-06
 Reference value :  3.19967e-06
 Reference value :  3.22998e-06
 Reference value :  3.25010e-06
 Reference value :  3.25011e-06
 Reference value :  3.25013e-06
 Reference value :  3.25017e-06
 Reference value :  3.25020e-06
 Reference value :  3.25020e-06
 Reference value :  3.25020e-06
 Reference value :  3.25021e-06
 Reference value :  3.25021e-06
 Reference value :  3.25022e-06
 Reference value :  3.25025e-06
 Reference value :  3.25030e-06
 Reference value :  3.25040e-06
 Reference value :  3.25059e-06
 Reference value :  3.25094e-06
 Reference value :  3.25155e-06
 Reference value :  3.25218e-06
 Reference value :  3.25295e-06
 Reference value :  3.25377e-06
 Reference value :  3.25483e-06
 Reference value :  3.25578e-06
 Reference value :  3.25687e-06
 Reference value :  3.25798e-06
 Reference value :  3.25905e-06
 Reference value :  3.26084e-06
 Reference value :  3.26259e-06
 Reference value :  3.26540e-06
 Reference value :  3.26895e-06
 Reference value :  3.27426e-06
 Reference value :  3.28487e-06
 Reference value :  3.30335e-06
 Reference value :  3.33703e-06
 Reference value :  3.40440e-06
 Reference value :  3.50000e-06
 Reference value :  3.50001e-06
 Reference value :  3.50003e-06
 Reference value :  3.50007e-06
 Reference value :  3.50010e-06
 Reference value :  3.50010e-06
 Reference value :  3.50011e-06
 Reference value :  3.50013e-06
 Reference value :  3.50016e-06
 Reference value :  3.50023e-06
 Reference value :  3.50037e-06
 Reference value :  3.50056e-06
 Reference value :  3.50093e-06
 Reference value :  3.50161e-06
 Reference value :  3.50223e-06
 Reference value :  3.50291e-06
 Reference value :  3.50362e-06
 Reference value :  3.50438e-06
 Reference value :  3.50523e-06
 Reference value :  3.50615e-06
 Reference value :  3.50711e-06
 Reference value :  3.50847e-06
 Reference value :  3.50978e-06
 Reference value :  3.51139e-06
 Reference value :  3.51288e-06
 Reference value :  3.51443e-06
 Reference value :  3.51596e-06
 Reference value :  3.51767e-06
 Reference value :  3.51944e-06
 Reference value :  3.52137e-06
 Reference value :  3.52522e-06
 Reference value :  3.53289e-06
 Reference value :  3.54588e-06
 Reference value :  3.57184e-06
 Reference value :  3.62377e-06
 Reference value :  3.72763e-06
 Reference value :  3.75010e-06
 Reference value :  3.75011e-06
 Reference value :  3.75013e-06
 Reference value :  3.75017e-06
 Reference value :  3.75020e-06
 Reference value :  3.75020e-06
 Reference value :  3.75020e-06
 Reference value :  3.75021e-06
 Reference value :  3.75021e-06
 Reference value :  3.75022e-06
 Reference value :  3.75025e-06
 Reference value :  3.75030e-06
 Reference value :  3.75039e-06
 Reference value :  3.75059e-06
 Reference value :  3.75093e-06
 Reference value :  3.75154e-06
 Reference value :  3.75216e-06
 Reference value :  3.75294e-06
 Reference value :  3.75375e-06
 Reference value :  3.75482e-06
 Reference value :  3.75575e-06
 Reference value :  3.75683e-06
 Reference value :  3.75777e-06
 Reference value :  3.75877e-06
 Reference value :  3.75991e-06
 Reference value :  3.76119e-06
 Reference value :  3.76374e-06
 Reference value :  3.76656e-06
 Reference value :  3.77109e-06
 Reference value :  3.77723e-06
 Reference value :  3.78950e-06
 Reference value :  3.81404e-06
 Reference value :  3.86313e-06
 Reference value :  3.96131e-06
 Reference value :  4.00000e-06
 Reference value :  4.00001e-06
 Reference value :  4.00003e-06
 Reference value :  4.00007e-06
 Reference value :  4.00010e-06
 Reference value :  4.00010e-06
 Reference value :  4.00011e-06
 Reference value :  4.00013e-06
 Reference value :  4.00016e-06
 Reference value :  4.00023e-06
 Reference value :  4.00037e-06
 Reference value :  4.00055e-06
 Reference value :  4.00092e-06
 Reference value :  4.00160e-06
 Reference value :  4.00223e-06
 Reference value :  4.00291e-06
 Reference value :  4.00363e-06
 Reference value :  4.00439e-06
 Reference value :  4.00523e-06
 Reference value :  4.00615e-06
 Reference value :  4.00717e-06
 Reference value :  4.00818e-06
 Reference value :  4.00913e-06
 Reference value :  4.01013e-06
 Reference value :  4.01117e-06
 Reference value :  4.01254e-06
 Reference value :  4.01441e-06
 Reference value :  4.01726e-06
 Reference value :  4.02017e-06
 Reference value :  4.02254e-06
 Reference value :  4.02446e-06
 Reference value :  4.02627e-06
 Reference value :  4.02828e-06
 Reference value :  4.03017e-06
 Reference value :  4.03235e-06
 Reference value :  4.03472e-06
 Reference value :  4.03806e-06
 Reference value :  4.04200e-06
 Reference value :  4.04942e-06
 Reference value :  4.05615e-06
 Reference value :  4.06237e-06
 Reference value :  4.06932e-06
 Reference value :  4.07722e-06
 Reference value :  4.08140e-06
 Reference value :  4.08715e-06
 Reference value :  4.09389e-06
 Reference value :  4.10133e-06
 Reference value :  4.10788e-06
 Reference value :  4.11627e-06
 Reference value :  4.12662e-06
 Reference value :  4.14516e-06
 Reference value :  4.17120e-06
 Reference value :  4.21425e-06
 Reference value :  4.25010e-06
 Reference value :  4.25011e-06
 Reference value :  4.25013e-06
 Reference value :  4.25017e-06
 Reference value :  4.25020e-06
 Reference value :  4.25020e-06
 Reference value :  4.25020e-06
 Reference value :  4.25021e-06
 Reference value :  4.25021e-06
 Reference value :  4.25022e-06
 Reference value :  4.25025e-06
 Reference value :  4.25030e-06
 Reference value :  4.25040e-06
 Reference value :  4.25059e-06
 Reference value :  4.25094e-06
 Reference value :  4.25154e-06
 Reference value :  4.25218e-06
 Reference value :  4.25294e-06
 Reference value :  4.25376e-06
 Reference value :  4.25483e-06
 Reference value :  4.25570e-06
 Reference value :  4.25672e-06
 Reference value :  4.25768e-06
 Reference value :  4.25870e-06
 Reference value :  4.26041e-06
 Reference value :  4.26199e-06
 Reference value :  4.26484e-06
 Reference value :  4.26791e-06
 Reference value :  4.27296e-06
 Reference value :  4.28159e-06
 Reference value :  4.29885e-06
 Reference value :  4.33337e-06
 Reference value :  4.40240e-06
 Reference value :  4.50000e-06
 Reference value :  4.50001e-06
 Reference value :  4.50003e-06
 Reference value :  4.50007e-06
 Reference value :  4.50010e-06
 Reference value :  4.50010e-06
 Reference value :  4.50011e-06
 Reference value :  4.50013e-06
 Reference value :  4.50016e-06
 Reference value :  4.50023e-06
 Reference value :  4.50037e-06
 Reference value :  4.50056e-06
 Reference value :  4.50092e-06
 Reference value :  4.50161e-06
 Reference value :  4.50223e-06
 Reference value :  4.50286e-06
 Reference value :  4.50357e-06
 Reference value :  4.50431e-06
 Reference value :  4.50516e-06
 Reference value :  4.50606e-06
 Reference value :  4.50702e-06
 Reference value :  4.50838e-06
 Reference value :  4.50964e-06
 Reference value :  4.51115e-06
 Reference value :  4.51248e-06
 Reference value :  4.51389e-06
 Reference value :  4.51531e-06
 Reference value :  4.51699e-06
 Reference value :  4.51879e-06
 Reference value :  4.52066e-06
 Reference value :  4.52439e-06
 Reference value :  4.53187e-06
 Reference value :  4.54489e-06
 Reference value :  4.57093e-06
 Reference value :  4.62302e-06
 Reference value :  4.72719e-06
 Reference value :  4.75010e-06
 Reference value :  4.75011e-06
 Reference value :  4.75013e-06
 Reference value :  4.75017e-06
 Reference value :  4.75020e-06
 Reference value :  4.75020e-06
 Reference value :  4.75020e-06
 Reference value :  4.75021e-06
 Reference value :  4.75021e-06
 Reference value :  4.75022e-06
 Reference value :  4.75025e-06
 Reference value :  4.75030e-06
 Reference value :  4.75039e-06
 Reference value :  4.75059e-06
 Reference value :  4.75092e-06
 Reference value :  4.75154e-06
 Reference value :  4.75216e-06
 Reference value :  4.75294e-06
 Reference value :  4.75375e-06
 Reference value :  4.75481e-06
 Reference value :  4.75573e-06
 Reference value :  4.75680e-06
 Reference value :  4.75774e-06
 Reference value :  4.75874e-06
 Reference value :  4.75987e-06
 Reference value :  4.76114e-06
 Reference value :  4.76241e-06
 Reference value :  4.76421e-06
 Reference value :  4.76638e-06
 Reference value :  4.76914e-06
 Reference value :  4.77275e-06
 Reference value :  4.77786e-06
 Reference value :  4.78809e-06
 Reference value :  4.80443e-06
 Reference value :  4.83711e-06
 Reference value :  4.90248e-06
 Reference value :  5.00000e-06
 Reference value :  5.00001e-06
 Reference value :  5.00003e-06
 Reference value :  5.00007e-06
 Reference value :  5.00010e-06
 Reference value :  5.00010e-06
 Reference value :  5.00011e-06
 Reference value :  5.00013e-06
 Reference value :  5.00016e-06
 Reference value :  5.00023e-06
 Reference value :  5.00037e-06
 Reference value :  5.00055e-06
 Reference value :  5.00092e-06
 Reference value :  5.00160e-06
 Reference value :  5.00223e-06
 Reference value :  5.00291e-06
 Reference value :  5.00363e-06
 Reference value :  5.00440e-06
 Reference value :  5.00524e-06
 Reference value :  5.00615e-06
 Reference value :  5.00702e-06
 Reference value :  5.00792e-06
 Reference value :  5.00885e-06
 Reference value :  5.00984e-06
 Reference value :  5.01084e-06
 Reference value :  5.01222e-06
 Reference value :  5.01390e-06
 Reference value :  5.01542e-06
 Reference value :  5.01707e-06
 Reference value :  5.01876e-06
 Reference value :  5.02054e-06
 Reference value :  5.02231e-06
 Reference value :  5.02369e-06
 Reference value :  5.02503e-06
 Reference value :  5.02672e-06
 Reference value :  5.02835e-06
 Reference value :  5.02989e-06
 Reference value :  5.03195e-06
 Reference value :  5.03396e-06
 Reference value :  5.03688e-06
 Reference value :  5.04068e-06
 Reference value :  5.04626e-06
 Reference value :  5.05355e-06
 Reference value :  5.06042e-06
 Reference value :  5.06633e-06
 Reference value :  5.07070e-06
 Reference value :  5.07541e-06
 Reference value :  5.08016e-06
 Reference value :  5.08498e-06
 Reference value :  5.09413e-06
 Reference value :  5.10479e-06
 Reference value :  5.12215e-06
 Reference value :  5.14768e-06
 Reference value :  5.18508e-06
 Reference value :  5.22631e-06
 Reference value :  5.25010e-06
 Reference value :  5.25011e-06
 Reference value :  5.25013e-06
 Reference value :  5.25017e-06
 Reference value :  5.25020e-06
 Reference value :  5.25020e-06
 Reference value :  5.25020e-06
 Reference value :  5.25021e-06
 Reference value :  5.25021e-06
 Reference value :  5.25022e-06
 Reference value :  5.25025e-06
 Reference value :  5.25030e-06
 Reference value :  5.25040e-06
 Reference value :  5.25059e-06
 Reference value :  5.25094e-06
 Reference value :  5.25154e-06
 Reference value :  5.25217e-06
 Reference value :  5.25294e-06
 Reference value :  5.25376e-06
 Reference value :  5.25482e-06
 Reference value :  5.25577e-06
 Reference value :  5.25686e-06
 Reference value :  5.25796e-06
 Reference value :  5.25902e-06
 Reference value :  5.26081e-06
 Reference value :  5.26256e-06
 Reference value :  5.26536e-06
 Reference value :  5.26888e-06
 Reference value :  5.27415e-06
 Reference value :  5.28467e-06
 Reference value :  5.29559e-06
 Reference value :  5.30574e-06
 Reference value :  5.31583e-06
 Reference value :  5.32629e-06
 Reference value :  5.33790e-06
 Reference value :  5.36113e-06
 Reference value :  5.38232e-06
 Reference value :  5.40397e-06
 Reference value :  5.42882e-06
 Reference value :  5.45449e-06
 Reference value :  5.50000e-06
 Reference value :  5.50001e-06
 Reference value :  5.50003e-06
 Reference value :  5.50007e-06
 Reference value :  5.50010e-06
 Reference value :  5.50010e-06
 Reference value :  5.50011e-06
 Reference value :  5.50013e-06
 Reference value :  5.50016e-06
 Reference value :  5.50023e-06
 Reference value :  5.50037e-06
 Reference value :  5.50055e-06
 Reference value :  5.50092e-06
 Reference value :  5.50160e-06
 Reference value :  5.50223e-06
 Reference value :  5.50286e-06
 Reference value :  5.50358e-06
 Reference value :  5.50432e-06
 Reference value :  5.50517e-06
 Reference value :  5.50607e-06
 Reference value :  5.50712e-06
 Reference value :  5.50846e-06
 Reference value :  5.50983e-06
 Reference value :  5.51139e-06
 Reference value :  5.51311e-06
 Reference value :  5.51466e-06
 Reference value :  5.51620e-06
 Reference value :  5.51785e-06
 Reference value :  5.51969e-06
 Reference value :  5.52178e-06
 Reference value :  5.52556e-06
 Reference value :  5.53105e-06
 Reference value :  5.54157e-06
 Reference value :  5.56111e-06
 Reference value :  5.59727e-06
 Reference value :  5.66878e-06
 Reference value :  5.75010e-06
 Reference value :  5.75011e-06
 Reference value :  5.75013e-06
 Reference value :  5.75017e-06
 Reference value :  5.75020e-06
 Reference value :  5.75020e-06
 Reference value :  5.75020e-06
 Reference value :  5.75021e-06
 Reference value :  5.75021e-06
 Reference value :  5.75022e-06
 Reference value :  5.75025e-06
 Reference value :  5.75030e-06
 Reference value :  5.75039e-06
 Reference value :  5.75059e-06
 Reference value :  5.75093e-06
 Reference value :  5.75154e-06
 Reference value :  5.75216e-06
 Reference value :  5.75294e-06
 Reference value :  5.75375e-06
 Reference value :  5.75481e-06
 Reference value :  5.75575e-06
 Reference value :  5.75683e-06
 Reference value :  5.75778e-06
 Reference value :  5.75878e-06
 Reference value :  5.75993e-06
 Reference value :  5.76120e-06
 Reference value :  5.76257e-06
 Reference value :  5.76430e-06
 Reference value :  5.76677e-06
 Reference value :  5.76953e-06
 Reference value :  5.77344e-06
 Reference value :  5.77880e-06
 Reference value :  5.78954e-06
 Reference value :  5.81101e-06
 Reference value :  5.85395e-06
 Reference value :  5.93983e-06
 Reference value :  6.00000e-06
 Reference value :  6.00001e-06
 Reference value :  6.00003e-06
 Reference value :  6.00007e-06
 Reference value :  6.00010e-06
 Reference value :  6.00010e-06
 Reference value :  6.00011e-06
 Reference value :  6.00013e-06
 Reference value :  6.00016e-06
 Reference value :  6.00023e-06
 Reference value :  6.00037e-06
 Reference value :  6.00055e-06
 Reference value :  6.00092e-06
 Reference value :  6.00160e-06
 Reference value :  6.00223e-06
 Reference value :  6.00291e-06
 Reference value :  6.00363e-06
 Reference value :  6.00438e-06
 Reference value :  6.00523e-06
 Reference value :  6.00613e-06
 Reference value :  6.00708e-06
 Reference value :  6.00794e-06
 Reference value :  6.00880e-06
 Reference value :  6.00981e-06
 Reference value :  6.01077e-06
 Reference value :  6.01209e-06
 Reference value :  6.01392e-06
 Reference value :  6.01570e-06
 Reference value :  6.01751e-06
 Reference value :  6.01955e-06
 Reference value :  6.02145e-06
 Reference value :  6.02334e-06
 Reference value :  6.02473e-06
 Reference value :  6.02600e-06
 Reference value :  6.02742e-06
 Reference value :  6.02884e-06
 Reference value :  6.03028e-06
 Reference value :  6.03195e-06
 Reference value :  6.03430e-06
 Reference value :  6.03681e-06
 Reference value :  6.03865e-06
 Reference value :  6.04071e-06
 Reference value :  6.04283e-06
 Reference value :  6.04512e-06
 Reference value :  6.04961e-06
 Reference value :  6.05468e-06
 Reference value :  6.06370e-06
 Reference value :  6.07724e-06
 Reference value :  6.09803e-06
 Reference value :  6.13344e-06
 Reference value :  6.18815e-06
 Reference value :  6.25010e-06
 Reference value :  6.25011e-06
 Reference value :  6.25013e-06
 Reference value :  6.25017e-06
 Reference value :  6.25020e-06
 Reference value :  6.25020e-06
 Reference value :  6.25020e-06
 Reference value :  6.25021e-06
 Reference value :  6.25021e-06
 Reference value :  6.25022e-06
 Reference value :  6.25025e-06
 Reference value :  6.25030e-06
 Reference value :  6.25040e-06
 Reference value :  6.25059e-06
 Reference value :  6.25094e-06
 Reference value :  6.25154e-06
 Reference value :  6.25218e-06
 Reference value :  6.25294e-06
 Reference value :  6.25376e-06
 Reference value :  6.25483e-06
 Reference value :  6.25578e-06
 Reference value :  6.25687e-06
 Reference value :  6.25797e-06
 Reference value :  6.25904e-06
 Reference value :  6.26082e-06
 Reference value :  6.26257e-06
 Reference value :  6.26537e-06
 Reference value :  6.26891e-06
 Reference value :  6.27419e-06
 Reference value :  6.28476e-06
 Reference value :  6.30308e-06
 Reference value :  6.33645e-06
 Reference value :  6.40318e-06
 Reference value :  6.50000e-06
 Reference value :  6.50001e-06
 Reference value :  6.50003e-06
 Reference value :  6.50007e-06
 Reference value :  6.50010e-06
 Reference value :  6.50010e-06
 Reference value :  6.50011e-06
 Reference value :  6.50013e-06
 Reference value :  6.50016e-06
 Reference value :  6.50023e-06
 Reference value :  6.50037e-06
 Reference value :  6.50056e-06
 Reference value :  6.50093e-06
 Reference value :  6.50161e-06
 Reference value :  6.50223e-06
 Reference value :  6.50291e-06
 Reference value :  6.50362e-06
 Reference value :  6.50438e-06
 Reference value :  6.50523e-06
 Reference value :  6.50615e-06
 Reference value :  6.50711e-06
 Reference value :  6.50847e-06
 Reference value :  6.50978e-06
 Reference value :  6.51141e-06
 Reference value :  6.51290e-06
 Reference value :  6.51445e-06
 Reference value :  6.51588e-06
 Reference value :  6.51746e-06
 Reference value :  6.51911e-06
 Reference value :  6.52101e-06
 Reference value :  6.52479e-06
 Reference value :  6.53047e-06
 Reference value :  6.54183e-06
 Reference value :  6.56456e-06
 Reference value :  6.61000e-06
 Reference value :  6.70089e-06
 Reference value :  6.75010e-06
 Reference value :  6.75011e-06
 Reference value :  6.75013e-06
 Reference value :  6.75017e-06
 Reference value :  6.75020e-06
 Reference value :  6.75020e-06
 Reference value :  6.75020e-06
 Reference value :  6.75021e-06
 Reference value :  6.75021e-06
 Reference value :  6.75022e-06
 Reference value :  6.75025e-06
 Reference value :  6.75030e-06
 Reference value :  6.75039e-06
 Reference value :  6.75059e-06
 Reference value :  6.75093e-06
 Reference value :  6.75154e-06
 Reference value :  6.75216e-06
 Reference value :  6.75294e-06
 Reference value :  6.75375e-06
 Reference value :  6.75481e-06
 Reference value :  6.75575e-06
 Reference value :  6.75682e-06
 Reference value :  6.75777e-06
 Reference value :  6.75877e-06
 Reference value :  6.75991e-06
 Reference value :  6.76118e-06
 Reference value :  6.76373e-06
 Reference value :  6.76655e-06
 Reference value :  6.77108e-06
 Reference value :  6.77721e-06
 Reference value :  6.78947e-06
 Reference value :  6.81399e-06
 Reference value :  6.86302e-06
 Reference value :  6.96110e-06
 Reference value :  7.00000e-06
 Reference value :  7.00001e-06
 Reference value :  7.00003e-06
 Reference value :  7.00007e-06
 Reference value :  7.00010e-06
 Reference value :  7.00010e-06
 Reference value :  7.00011e-06
 Reference value :  7.00013e-06
 Reference value :  7.00016e-06
 Reference value :  7.00023e-06
 Reference value :  7.00037e-06
 Reference value :  7.00055e-06
 Reference value :  7.00092e-06
 Reference value :  7.00160e-06
 Reference value :  7.00223e-06
 Reference value :  7.00291e-06
 Reference value :  7.00363e-06
 Reference value :  7.00439e-06
 Reference value :  7.00523e-06
 Reference value :  7.00615e-06
 Reference value :  7.00717e-06
 Reference value :  7.00818e-06
 Reference value :  7.00904e-06
 Reference value :  7.01006e-06
 Reference value :  7.01108e-06
 Reference value :  7.01240e-06
 Reference value :  7.01436e-06
 Reference value :  7.01723e-06
 Reference value :  7.02046e-06
 Reference value :  7.02288e-06
 Reference value :  7.02508e-06
 Reference value :  7.02725e-06
 Reference value :  7.02925e-06
 Reference value :  7.03145e-06
 Reference value :  7.03381e-06
 Reference value :  7.03638e-06
 Reference value :  7.03932e-06
 Reference value :  7.04387e-06
 Reference value :  7.04990e-06
 Reference value :  7.05954e-06
 Reference value :  7.07337e-06
 Reference value :  7.09288e-06
 Reference value :  7.12518e-06
 Reference value :  7.18977e-06
 Reference value :  7.25010e-06
 Reference value :  7.25011e-06
 Reference value :  7.25013e-06
 Reference value :  7.25017e-06
 Reference value :  7.25020e-06
 Reference value :  7.25020e-06
 Reference value :  7.25020e-06
 Reference value :  7.25021e-06
 Reference value :  7.25021e-06
 Reference value :  7.25022e-06
 Reference value :  7.25025e-06
 Reference value :  7.25030e-06
 Reference value :  7.25039e-06
 Reference value :  7.25059e-06
 Reference value :  7.25093e-06
 Reference value :  7.25154e-06
 Reference value :  7.25217e-06
 Reference value :  7.25294e-06
 Reference value :  7.25375e-06
 Reference value :  7.25482e-06
 Reference value :  7.25574e-06
 Reference value :  7.25681e-06
 Reference value :  7.25793e-06
 Reference value :  7.25897e-06
 Reference value :  7.26077e-06
 Reference value :  7.26246e-06
 Reference value :  7.26529e-06
 Reference value :  7.26873e-06
 Reference value :  7.27396e-06
 Reference value :  7.28440e-06
 Reference value :  7.30303e-06
 Reference value :  7.33704e-06
 Reference value :  7.40506e-06
 Reference value :  7.50000e-06
 Reference value :  7.50001e-06
 Reference value :  7.50003e-06
 Reference value :  7.50007e-06
 Reference value :  7.50010e-06
 Reference value :  7.50010e-06
 Reference value :  7.50011e-06
 Reference value :  7.50013e-06
 Reference value :  7.50016e-06
 Reference value :  7.50023e-06
 Reference value :  7.50037e-06
 Reference value :  7.50056e-06
 Reference value :  7.50093e-06
 Reference value :  7.50152e-06
 Reference value :  7.50214e-06
 Reference value :  7.50284e-06
 Reference value :  7.50356e-06
 Reference value :  7.50432e-06
 Reference value :  7.50517e-06
 Reference value :  7.50609e-06
 Reference value :  7.50714e-06
 Reference value :  7.50847e-06
 Reference value :  7.50985e-06
 Reference value :  7.51155e-06
 Reference value :  7.51308e-06
 Reference value :  7.51466e-06
 Reference value :  7.51609e-06
 Reference value :  7.51771e-06
 Reference value :  7.51931e-06
 Reference value :  7.52118e-06
 Reference value :  7.52491e-06
 Reference value :  7.53120e-06
 Reference value :  7.54378e-06
 Reference value :  7.56893e-06
 Reference value :  7.61925e-06
 Reference value :  7.71988e-06
 Reference value :  7.75010e-06
 Reference value :  7.75011e-06
 Reference value :  7.75013e-06
 Reference value :  7.75017e-06
 Reference value :  7.75020e-06
 Reference value :  7.75020e-06
 Reference value :  7.75020e-06
 Reference value :  7.75021e-06
 Reference value :  7.75021e-06
 Reference value :  7.75022e-06
 Reference value :  7.75025e-06
 Reference value :  7.75030e-06
 Reference value :  7.75039e-06
 Reference value :  7.75059e-06
 Reference value :  7.75093e-06
 Reference value :  7.75154e-06
 Reference value :  7.75217e-06
 Reference value :  7.75294e-06
 Reference value :  7.75375e-06
 Reference value :  7.75482e-06
 Reference value :  7.75571e-06
 Reference value :  7.75675e-06
 Reference value :  7.75766e-06
 Reference value :  7.75864e-06
 Reference value :  7.75976e-06
 Reference value :  7.76102e-06
 Reference value :  7.76353e-06
 Reference value :  7.76625e-06
 Reference value :  7.77069e-06
 Reference value :  7.77646e-06
 Reference value :  7.78800e-06
 Reference value :  7.81108e-06
 Reference value :  7.85725e-06
 Reference value :  7.94958e-06
 Reference value :  8.00000e-06
 Reference value :  8.00001e-06
 Reference value :  8.00003e-06
 Reference value :  8.00007e-06
 Reference value :  8.00010e-06
 Reference value :  8.00010e-06
 Reference value :  8.00011e-06
 Reference value :  8.00013e-06
 Reference value :  8.00016e-06
 Reference value :  8.00023e-06
 Reference value :  8.00037e-06
 Reference value :  8.00055e-06
 Reference value :  8.00092e-06
 Reference value :  8.00151e-06
 Reference value :  8.00214e-06
 Reference value :  8.00284e-06
 Reference value :  8.00356e-06
 Reference value :  8.00433e-06
 Reference value :  8.00517e-06
 Reference value :  8.00609e-06
 Reference value :  8.00702e-06
 Reference value :  8.00802e-06
 Reference value :  8.00897e-06
 Reference value :  8.00995e-06
 Reference value :  8.01097e-06
 Reference value :  8.01231e-06
 Reference value :  8.01413e-06
 Reference value :  8.01685e-06
 Reference value :  8.02022e-06
 Reference value :  8.02271e-06
 Reference value :  8.02546e-06
 Reference value :  8.02813e-06
 Reference value :  8.03121e-06
 Reference value :  8.03586e-06
 Reference value :  8.04193e-06
 Reference value :  8.05211e-06
 Reference value :  8.06822e-06
 Reference value :  8.09503e-06
 Reference value :  8.14683e-06
 Reference value :  8.24909e-06
 Reference value :  8.25010e-06
 Reference value :  8.25011e-06
 Reference value :  8.25013e-06
 Reference value :  8.25017e-06
 Reference value :  8.25020e-06
 Reference value :  8.25020e-06
 Reference value :  8.25020e-06
 Reference value :  8.25021e-06
 Reference value :  8.25021e-06
 Reference value :  8.25022e-06
 Reference value :  8.25025e-06
 Reference value :  8.25030e-06
 Reference value :  8.25039e-06
 Reference value :  8.25059e-06
 Reference value :  8.25097e-06
 Reference value :  8.25154e-06
 Reference value :  8.25221e-06
 Reference value :  8.25295e-06
 Reference value :  8.25379e-06
 Reference value :  8.25485e-06
 Reference value :  8.25616e-06
 Reference value :  8.25753e-06
 Reference value :  8.25911e-06
 Reference value :  8.26083e-06
 Reference value :  8.26340e-06
 Reference value :  8.26637e-06
 Reference value :  8.27042e-06
 Reference value :  8.27625e-06
 Reference value :  8.28791e-06
 Reference value :  8.31124e-06
 Reference value :  8.35744e-06
 Reference value :  8.44983e-06
 Reference value :  8.50000e-06
 Reference value :  8.50001e-06
 Reference value :  8.50003e-06
 Reference value :  8.50007e-06
 Reference value :  8.50010e-06
 Reference value :  8.50010e-06
 Reference value :  8.50011e-06
 Reference value :  8.50013e-06
 Reference value :  8.50016e-06
 Reference value :  8.50023e-06
 Reference value :  8.50037e-06
 Reference value :  8.50064e-06
 Reference value :  8.50111e-06
 Reference value :  8.50187e-06
 Reference value :  8.50271e-06
 Reference value :  8.50338e-06
 Reference value :  8.50424e-06
 Reference value :  8.50514e-06
 Reference value :  8.50606e-06
 Reference value :  8.50708e-06
 Reference value :  8.50859e-06
 Reference value :  8.51017e-06
 Reference value :  8.51269e-06
 Reference value :  8.51434e-06
 Reference value :  8.51623e-06
 Reference value :  8.51914e-06
 Reference value :  8.52188e-06
 Reference value :  8.52525e-06
 Reference value :  8.53198e-06
 Reference value :  8.53283e-06
 Reference value :  8.53451e-06
 Reference value :  8.53633e-06
 Reference value :  8.53868e-06
 Reference value :  8.54126e-06
 Reference value :  8.54341e-06
 Reference value :  8.54567e-06
 Reference value :  8.54758e-06
 Reference value :  8.54957e-06
 Reference value :  8.55163e-06
 Reference value :  8.55324e-06
 Reference value :  8.55502e-06
 Reference value :  8.55691e-06
 Reference value :  8.55866e-06
 Reference value :  8.56087e-06
 Reference value :  8.56427e-06
 Reference value :  8.56733e-06
 Reference value :  8.57092e-06
 Reference value :  8.57546e-06
 Reference value :  8.58067e-06
 Reference value :  8.58807e-06
 Reference value :  8.59490e-06
 Reference value :  8.60856e-06
 Reference value :  8.62383e-06
 Reference value :  8.64813e-06
 Reference value :  8.67035e-06
 Reference value :  8.69684e-06
 Reference value :  8.72258e-06
 Reference value :  8.75010e-06
 Reference value :  8.75011e-06
 Reference value :  8.75013e-06
 Reference value :  8.75017e-06
 Reference value :  8.75020e-06
 Reference value :  8.75020e-06
 Reference value :  8.75020e-06
 Reference value :  8.75021e-06
 Reference value :  8.75021e-06
 Reference value :  8.75022e-06
 Reference value :  8.75025e-06
 Reference value :  8.75030e-06
 Reference value :  8.75039e-06
 Reference value :  8.75059e-06
 Reference value :  8.75098e-06
 Reference value :  8.75155e-06
 Reference value :  8.75223e-06
 Reference value :  8.75299e-06
 Reference value :  8.75380e-06
 Reference value :  8.75492e-06
 Reference value :  8.75587e-06
 Reference value :  8.75695e-06
 Reference value :  8.75814e-06
 Reference value :  8.75921e-06
 Reference value :  8.76101e-06
 Reference value :  8.76292e-06
 Reference value :  8.76566e-06
 Reference value :  8.76946e-06
 Reference value :  8.77502e-06
 Reference value :  8.78615e-06
 Reference value :  8.80399e-06
 Reference value :  8.83654e-06
 Reference value :  8.89597e-06
 Reference value :  8.95860e-06
 Reference value :  9.00000e-06
 Reference value :  9.00001e-06
 Reference value :  9.00003e-06
 Reference value :  9.00007e-06
 Reference value :  9.00010e-06
 Reference value :  9.00010e-06
 Reference value :  9.00011e-06
 Reference value :  9.00013e-06
 Reference value :  9.00016e-06
 Reference value :  9.00023e-06
 Reference value :  9.00037e-06
 Reference value :  9.00056e-06
 Reference value :  9.00094e-06
 Reference value :  9.00153e-06
 Reference value :  9.00216e-06
 Reference value :  9.00285e-06
 Reference value :  9.00368e-06
 Reference value :  9.00443e-06
 Reference value :  9.00531e-06
 Reference value :  9.00626e-06
 Reference value :  9.00723e-06
 Reference value :  9.00863e-06
 Reference value :  9.01002e-06
 Reference value :  9.01255e-06
 Reference value :  9.01560e-06
 Reference value :  9.01779e-06
 Reference value :  9.02028e-06
 Reference value :  9.02270e-06
 Reference value :  9.02527e-06
 Reference value :  9.02840e-06
 Reference value :  9.03317e-06
 Reference value :  9.03983e-06
 Reference value :  9.04946e-06
 Reference value :  9.06872e-06
 Reference value :  9.08514e-06
 Reference value :  9.09651e-06
 Reference value :  9.10547e-06
 Reference value :  9.11248e-06
 Reference value :  9.11896e-06
 Reference value :  9.12511e-06
 Reference value :  9.13145e-06
 Reference value :  9.13833e-06
 Reference value :  9.14593e-06
 Reference value :  9.15996e-06
 Reference value :  9.17709e-06
 Reference value :  9.20633e-06
 Reference value :  9.25010e-06
 Reference value :  9.25011e-06
 Reference value :  9.25013e-06
 Reference value :  9.25017e-06
 Reference value :  9.25020e-06
 Reference value :  9.25020e-06
 Reference value :  9.25020e-06
 Reference value :  9.25021e-06
 Reference value :  9.25021e-06
 Reference value :  9.25022e-06
 Reference value :  9.25025e-06
 Reference value :  9.25030e-06
 Reference value :  9.25039e-06
 Reference value :  9.25059e-06
 Reference value :  9.25097e-06
 Reference value :  9.25156e-06
 Reference value :  9.25222e-06
 Reference value :  9.25298e-06
 Reference value :  9.25382e-06
 Reference value :  9.25491e-06
 Reference value :  9.25584e-06
 Reference value :  9.25692e-06
 Reference value :  9.25785e-06
 Reference value :  9.25885e-06
 Reference value :  9.26000e-06
 Reference value :  9.26127e-06
 Reference value :  9.26256e-06
 Reference value :  9.26438e-06
 Reference value :  9.26642e-06
 Reference value :  9.26919e-06
 Reference value :  9.27264e-06
 Reference value :  9.27767e-06
 Reference value :  9.28773e-06
 Reference value :  9.30166e-06
 Reference value :  9.32828e-06
 Reference value :  9.38153e-06
 Reference value :  9.48653e-06
 Reference value :  9.50000e-06
 Reference value :  9.50001e-06
 Reference value :  9.50003e-06
 Reference value :  9.50007e-06
 Reference value :  9.50010e-06
 Reference value :  9.50010e-06
 Reference value :  9.50011e-06
 Reference value :  9.50013e-06
 Reference value :  9.50016e-06
 Reference value :  9.50023e-06
 Reference value :  9.50037e-06
 Reference value :  9.50056e-06
 Reference value :  9.50094e-06
 Reference value :  9.50154e-06
 Reference value :  9.50216e-06
 Reference value :  9.50285e-06
 Reference value :  9.50356e-06
 Reference value :  9.50432e-06
 Reference value :  9.50516e-06
 Reference value :  9.50610e-06
 Reference value :  9.50693e-06
 Reference value :  9.50779e-06
 Reference value :  9.50864e-06
 Reference value :  9.50951e-06
 Reference value :  9.51040e-06
 Reference value :  9.51174e-06
 Reference value :  9.51298e-06
 Reference value :  9.51529e-06
 Reference value :  9.51759e-06
 Reference value :  9.51941e-06
 Reference value :  9.52139e-06
 Reference value :  9.52326e-06
 Reference value :  9.52518e-06
 Reference value :  9.52686e-06
 Reference value :  9.52859e-06
 Reference value :  9.53026e-06
 Reference value :  9.53228e-06
 Reference value :  9.53450e-06
 Reference value :  9.53724e-06
 Reference value :  9.54117e-06
 Reference value :  9.54730e-06
 Reference value :  9.55694e-06
 Reference value :  9.57315e-06
 Reference value :  9.60013e-06
 Reference value :  9.64607e-06
 Reference value :  9.70470e-06
 Reference value :  9.75010e-06
 Reference value :  9.75011e-06
 Reference value :  9.75013e-06
 Reference value :  9.75017e-06
 Reference value :  9.75020e-06
 Reference value :  9.75020e-06
 Reference value :  9.75020e-06
 Reference value :  9.75021e-06
 Reference value :  9.75021e-06
 Reference value :  9.75022e-06
 Reference value :  9.75025e-06
 Reference value :  9.75030e-06
 Reference value :  9.75039e-06
 Reference value :  9.75059e-06
 Reference value :  9.75093e-06
 Reference value :  9.75155e-06
 Reference value :  9.75217e-06
 Reference value :  9.75296e-06
 Reference value :  9.75376e-06
 Reference value :  9.75484e-06
 Reference value :  9.75576e-06
 Reference value :  9.75682e-06
 Reference value :  9.75795e-06
 Reference value :  9.75898e-06
 Reference value :  9.76047e-06
 Reference value :  9.76165e-06
 Reference value :  9.76291e-06
 Reference value :  9.76456e-06
 Reference value :  9.76630e-06
 Reference value :  9.76925e-06
 Reference value :  9.77361e-06
 Reference value :  9.78054e-06
 Reference value :  9.79185e-06
 Reference value :  9.80204e-06
 Reference value :  9.81700e-06
 Reference value :  9.83219e-06
 Reference value :  9.85642e-06
 Reference value :  9.89207e-06
 Reference value :  9.94909e-06
 Reference value :  1.00000e-05
 Reference value :  1.00000e-05
 Reference value :  1.00000e-05
 Reference value :  1.00001e-05
 Reference value :  1.00001e-05
 Reference value :  1.00001e-05
 Reference value :  1.00001e-05
 Reference value :  1.00001e-05
 Reference value :  1.00002e-05
 Reference value :  1.00002e-05
 Reference value :  1.00004e-05
 Reference value :  1.00006e-05
 Reference value :  1.00009e-05
 Reference value :  1.00016e-05
 Reference value :  1.00022e-05
 Reference value :  1.00029e-05
 Reference value :  1.00036e-05
 Reference value :  1.00044e-05
 Reference value :  1.00052e-05
 Reference value :  1.00062e-05
 Reference value :  1.00072e-05
 Reference value :  1.00085e-05
 Reference value :  1.00099e-05
 Reference value :  1.00115e-05
 Reference value :  1.00130e-05
 Reference value :  1.00146e-05
 Reference value :  1.00166e-05
 Reference value :  1.00185e-05
 Reference value :  1.00208e-05
 Reference value :  1.00229e-05
 Reference value :  1.00273e-05
 Reference value :  1.00358e-05
 Reference value :  1.00490e-05
 Reference value :  1.00754e-05
 Reference value :  1.01281e-05
 Reference value :  1.02335e-05
 Reference value :  1.02501e-05
 Reference value :  1.02501e-05
 Reference value :  1.02501e-05
 Reference value :  1.02502e-05
 Reference value :  1.02502e-05
 Reference value :  1.02502e-05
 Reference value :  1.02502e-05
 Reference value :  1.02502e-05
 Reference value :  1.02502e-05
 Reference value :  1.02502e-05
 Reference value :  1.02502e-05
 Reference value :  1.02503e-05
 Reference value :  1.02504e-05
 Reference value :  1.02506e-05
 Reference value :  1.02509e-05
 Reference value :  1.02515e-05
 Reference value :  1.02522e-05
 Reference value :  1.02529e-05
 Reference value :  1.02538e-05
 Reference value :  1.02548e-05
 Reference value :  1.02558e-05
 Reference value :  1.02568e-05
 Reference value :  1.02578e-05
 Reference value :  1.02588e-05
 Reference value :  1.02599e-05
 Reference value :  1.02612e-05
 Reference value :  1.02637e-05
 Reference value :  1.02665e-05
 Reference value :  1.02710e-05
 Reference value :  1.02770e-05
 Reference value :  1.02891e-05
 Reference value :  1.03132e-05
 Reference value :  1.03614e-05
 Reference value :  1.04579e-05
 Reference value :  1.05000e-05
 Reference value :  1.05000e-05
 Reference value :  1.05000e-05
 Reference value :  1.05001e-05
 Reference value :  1.05001e-05
 Reference value :  1.05001e-05
 Reference value :  1.05001e-05
 Reference value :  1.05001e-05
 Reference value :  1.05002e-05
 Reference value :  1.05002e-05
 Reference value :  1.05004e-05
 Reference value :  1.05006e-05
 Reference value :  1.05009e-05
 Reference value :  1.05016e-05
 Reference value :  1.05022e-05
 Reference value :  1.05029e-05
 Reference value :  1.05036e-05
 Reference value :  1.05044e-05
 Reference value :  1.05052e-05
 Reference value :  1.05061e-05
 Reference value :  1.05072e-05
 Reference value :  1.05082e-05
 Reference value :  1.05092e-05
 Reference value :  1.05103e-05
 Reference value :  1.05113e-05
 Reference value :  1.05128e-05
 Reference value :  1.05146e-05
 Reference value :  1.05176e-05
 Reference value :  1.05204e-05
 Reference value :  1.05228e-05
 Reference value :  1.05249e-05
 Reference value :  1.05269e-05
 Reference value :  1.05289e-05
 Reference value :  1.05310e-05
 Reference value :  1.05334e-05
 Reference value :  1.05358e-05
 Reference value :  1.05388e-05
 Reference value :  1.05432e-05
 Reference value :  1.05494e-05
 Reference value :  1.05594e-05
 Reference value :  1.05754e-05
 Reference value :  1.05921e-05
 Reference value :  1.06073e-05
 Reference value :  1.06222e-05
 Reference value :  1.06329e-05
 Reference value :  1.06430e-05
 Reference value :  1.06539e-05
 Reference value :  1.06626e-05
 Reference value :  1.06720e-05
 Reference value :  1.06817e-05
 Reference value :  1.06953e-05
 Reference value :  1.07143e-05
 Reference value :  1.07405e-05
 Reference value :  1.07501e-05
 Reference value :  1.07501e-05
 Reference value :  1.07501e-05
 Reference value :  1.07502e-05
 Reference value :  1.07502e-05
 Reference value :  1.07502e-05
 Reference value :  1.07502e-05
 Reference value :  1.07502e-05
 Reference value :  1.07502e-05
 Reference value :  1.07502e-05
 Reference value :  1.07502e-05
 Reference value :  1.07503e-05
 Reference value :  1.07504e-05
 Reference value :  1.07506e-05
 Reference value :  1.07509e-05
 Reference value :  1.07515e-05
 Reference value :  1.07522e-05
 Reference value :  1.07530e-05
 Reference value :  1.07538e-05
 Reference value :  1.07548e-05
 Reference value :  1.07557e-05
 Reference value :  1.07567e-05
 Reference value :  1.07577e-05
 Reference value :  1.07587e-05
 Reference value :  1.07604e-05
 Reference value :  1.07620e-05
 Reference value :  1.07649e-05
 Reference value :  1.07680e-05
 Reference value :  1.07730e-05
 Reference value :  1.07822e-05
 Reference value :  1.08005e-05
 Reference value :  1.08369e-05
 Reference value :  1.09096e-05
 Reference value :  1.09955e-05
 Reference value :  1.10000e-05
 Reference value :  1.10000e-05
 Reference value :  1.10000e-05
 Reference value :  1.10001e-05
 Reference value :  1.10001e-05
 Reference value :  1.10001e-05
 Reference value :  1.10001e-05
 Reference value :  1.10001e-05
 Reference value :  1.10002e-05
 Reference value :  1.10002e-05
 Reference value :  1.10004e-05
 Reference value :  1.10006e-05
 Reference value :  1.10009e-05
 Reference value :  1.10016e-05
 Reference value :  1.10022e-05
 Reference value :  1.10029e-05
 Reference value :  1.10036e-05
 Reference value :  1.10043e-05
 Reference value :  1.10052e-05
 Reference value :  1.10061e-05
 Reference value :  1.10071e-05
 Reference value :  1.10085e-05
 Reference value :  1.10098e-05
 Reference value :  1.10114e-05
 Reference value :  1.10128e-05
 Reference value :  1.10143e-05
 Reference value :  1.10163e-05
 Reference value :  1.10182e-05
 Reference value :  1.10203e-05
 Reference value :  1.10231e-05
 Reference value :  1.10264e-05
 Reference value :  1.10321e-05
 Reference value :  1.10404e-05
 Reference value :  1.10546e-05
 Reference value :  1.10790e-05
 Reference value :  1.11204e-05
 Reference value :  1.11969e-05
 Reference value :  1.12501e-05
 Reference value :  1.12501e-05
 Reference value :  1.12501e-05
 Reference value :  1.12502e-05
 Reference value :  1.12502e-05
 Reference value :  1.12502e-05
 Reference value :  1.12502e-05
 Reference value :  1.12502e-05
 Reference value :  1.12502e-05
 Reference value :  1.12502e-05
 Reference value :  1.12502e-05
 Reference value :  1.12503e-05
 Reference value :  1.12504e-05
 Reference value :  1.12506e-05
 Reference value :  1.12509e-05
 Reference value :  1.12515e-05
 Reference value :  1.12522e-05
 Reference value :  1.12529e-05
 Reference value :  1.12538e-05
 Reference value :  1.12548e-05
 Reference value :  1.12558e-05
 Reference value :  1.12568e-05
 Reference value :  1.12578e-05
 Reference value :  1.12587e-05
 Reference value :  1.12599e-05
 Reference value :  1.12611e-05
 Reference value :  1.12625e-05
 Reference value :  1.12642e-05
 Reference value :  1.12665e-05
 Reference value :  1.12693e-05
 Reference value :  1.12730e-05
 Reference value :  1.12782e-05
 Reference value :  1.12885e-05
 Reference value :  1.13073e-05
 Reference value :  1.13450e-05
 Reference value :  1.14203e-05
 Reference value :  1.15000e-05
 Reference value :  1.15000e-05
 Reference value :  1.15000e-05
 Reference value :  1.15001e-05
 Reference value :  1.15001e-05
 Reference value :  1.15001e-05
 Reference value :  1.15001e-05
 Reference value :  1.15001e-05
 Reference value :  1.15002e-05
 Reference value :  1.15002e-05
 Reference value :  1.15004e-05
 Reference value :  1.15006e-05
 Reference value :  1.15009e-05
 Reference value :  1.15016e-05
 Reference value :  1.15022e-05
 Reference value :  1.15029e-05
 Reference value :  1.15036e-05
 Reference value :  1.15044e-05
 Reference value :  1.15052e-05
 Reference value :  1.15061e-05
 Reference value :  1.15071e-05
 Reference value :  1.15079e-05
 Reference value :  1.15088e-05
 Reference value :  1.15098e-05
 Reference value :  1.15108e-05
 Reference value :  1.15121e-05
 Reference value :  1.15135e-05
 Reference value :  1.15157e-05
 Reference value :  1.15172e-05
 Reference value :  1.15189e-05
 Reference value :  1.15205e-05
 Reference value :  1.15223e-05
 Reference value :  1.15240e-05
 Reference value :  1.15255e-05
 Reference value :  1.15272e-05
 Reference value :  1.15287e-05
 Reference value :  1.15303e-05
 Reference value :  1.15321e-05
 Reference value :  1.15345e-05
 Reference value :  1.15371e-05
 Reference value :  1.15413e-05
 Reference value :  1.15479e-05
 Reference value :  1.15583e-05
 Reference value :  1.15762e-05
 Reference value :  1.15933e-05
 Reference value :  1.16075e-05
 Reference value :  1.16165e-05
 Reference value :  1.16247e-05
 Reference value :  1.16335e-05
 Reference value :  1.16486e-05
 Reference value :  1.16640e-05
 Reference value :  1.16829e-05
 Reference value :  1.17150e-05
 Reference value :  1.17501e-05
 Reference value :  1.17501e-05
 Reference value :  1.17501e-05
 Reference value :  1.17502e-05
 Reference value :  1.17502e-05
 Reference value :  1.17502e-05
 Reference value :  1.17502e-05
 Reference value :  1.17502e-05
 Reference value :  1.17502e-05
 Reference value :  1.17502e-05
 Reference value :  1.17502e-05
 Reference value :  1.17503e-05
 Reference value :  1.17504e-05
 Reference value :  1.17506e-05
 Reference value :  1.17509e-05
 Reference value :  1.17515e-05
 Reference value :  1.17522e-05
 Reference value :  1.17529e-05
 Reference value :  1.17538e-05
 Reference value :  1.17548e-05
 Reference value :  1.17558e-05
 Reference value :  1.17569e-05
 Reference value :  1.17580e-05
 Reference value :  1.17590e-05
 Reference value :  1.17608e-05
 Reference value :  1.17626e-05
 Reference value :  1.17654e-05
 Reference value :  1.17689e-05
 Reference value :  1.17742e-05
 Reference value :  1.17848e-05
 Reference value :  1.18030e-05
 Reference value :  1.18362e-05
 Reference value :  1.19025e-05
 Reference value :  1.20000e-05
 Reference value :  1.20000e-05
 Reference value :  1.20000e-05
 Reference value :  1.20001e-05
 Reference value :  1.20001e-05
 Reference value :  1.20001e-05
 Reference value :  1.20001e-05
 Reference value :  1.20001e-05
 Reference value :  1.20002e-05
 Reference value :  1.20002e-05
 Reference value :  1.20004e-05
 Reference value :  1.20006e-05
 Reference value :  1.20009e-05
 Reference value :  1.20016e-05
 Reference value :  1.20022e-05
 Reference value :  1.20029e-05
 Reference value :  1.20036e-05
 Reference value :  1.20044e-05
 Reference value :  1.20052e-05
 Reference value :  1.20062e-05
 Reference value :  1.20071e-05
 Reference value :  1.20085e-05
 Reference value :  1.20098e-05
 Reference value :  1.20114e-05
 Reference value :  1.20129e-05
 Reference value :  1.20144e-05
 Reference value :  1.20160e-05
 Reference value :  1.20177e-05
 Reference value :  1.20194e-05
 Reference value :  1.20214e-05
 Reference value :  1.20252e-05
 Reference value :  1.20329e-05
 Reference value :  1.20458e-05
 Reference value :  1.20717e-05
 Reference value :  1.21235e-05
 Reference value :  1.22272e-05
 Reference value :  1.22501e-05
 Reference value :  1.22501e-05
 Reference value :  1.22501e-05
 Reference value :  1.22502e-05
 Reference value :  1.22502e-05
 Reference value :  1.22502e-05
 Reference value :  1.22502e-05
 Reference value :  1.22502e-05
 Reference value :  1.22502e-05
 Reference value :  1.22502e-05
 Reference value :  1.22502e-05
 Reference value :  1.22503e-05
 Reference value :  1.22504e-05
 Reference value :  1.22506e-05
 Reference value :  1.22509e-05
 Reference value :  1.22515e-05
 Reference value :  1.22522e-05
 Reference value :  1.22529e-05
 Reference value :  1.22538e-05
 Reference value :  1.22548e-05
 Reference value :  1.22558e-05
 Reference value :  1.22568e-05
 Reference value :  1.22578e-05
 Reference value :  1.22588e-05
 Reference value :  1.22599e-05
 Reference value :  1.22612e-05
 Reference value :  1.22637e-05
 Reference value :  1.22666e-05
 Reference value :  1.22711e-05
 Reference value :  1.22772e-05
 Reference value :  1.22895e-05
 Reference value :  1.23140e-05
 Reference value :  1.23631e-05
 Reference value :  1.24613e-05
 Reference value :  1.25000e-05
 Reference value :  1.25000e-05
 Reference value :  1.25000e-05
 Reference value :  1.25001e-05
 Reference value :  1.25001e-05
 Reference value :  1.25001e-05
 Reference value :  1.25001e-05
 Reference value :  1.25001e-05
 Reference value :  1.25002e-05
 Reference value :  1.25002e-05
 Reference value :  1.25004e-05
 Reference value :  1.25006e-05
 Reference value :  1.25009e-05
 Reference value :  1.25016e-05
 Reference value :  1.25022e-05
 Reference value :  1.25029e-05
 Reference value :  1.25036e-05
 Reference value :  1.25044e-05
 Reference value :  1.25052e-05
 Reference value :  1.25061e-05
 Reference value :  1.25072e-05
 Reference value :  1.25082e-05
 Reference value :  1.25091e-05
 Reference value :  1.25101e-05
 Reference value :  1.25112e-05
 Reference value :  1.25125e-05
 Reference value :  1.25144e-05
 Reference value :  1.25173e-05
 Reference value :  1.25202e-05
 Reference value :  1.25225e-05
 Reference value :  1.25245e-05
 Reference value :  1.25263e-05
 Reference value :  1.25283e-05
 Reference value :  1.25302e-05
 Reference value :  1.25323e-05
 Reference value :  1.25347e-05
 Reference value :  1.25380e-05
 Reference value :  1.25419e-05
 Reference value :  1.25494e-05
 Reference value :  1.25573e-05
 Reference value :  1.25647e-05
 Reference value :  1.25701e-05
 Reference value :  1.25774e-05
 Reference value :  1.25822e-05
 Reference value :  1.25874e-05
 Reference value :  1.25924e-05
 Reference value :  1.25984e-05
 Reference value :  1.26066e-05
 Reference value :  1.26134e-05
 Reference value :  1.26213e-05
 Reference value :  1.26334e-05
 Reference value :  1.26509e-05
 Reference value :  1.26758e-05
 Reference value :  1.27141e-05
 Reference value :  1.27501e-05
 Reference value :  1.27501e-05
 Reference value :  1.27501e-05
 Reference value :  1.27502e-05
 Reference value :  1.27502e-05
 Reference value :  1.27502e-05
 Reference value :  1.27502e-05
 Reference value :  1.27502e-05
 Reference value :  1.27502e-05
 Reference value :  1.27502e-05
 Reference value :  1.27502e-05
 Reference value :  1.27503e-05
 Reference value :  1.27504e-05
 Reference value :  1.27506e-05
 Reference value :  1.27509e-05
 Reference value :  1.27515e-05
 Reference value :  1.27522e-05
 Reference value :  1.27529e-05
 Reference value :  1.27537e-05
 Reference value :  1.27548e-05
 Reference value :  1.27557e-05
 Reference value :  1.27567e-05
 Reference value :  1.27577e-05
 Reference value :  1.27587e-05
 Reference value :  1.27604e-05
 Reference value :  1.27620e-05
 Reference value :  1.27649e-05
 Reference value :  1.27680e-05
 Reference value :  1.27730e-05
 Reference value :  1.27818e-05
 Reference value :  1.27995e-05
 Reference value :  1.28348e-05
 Reference value :  1.29054e-05
 Reference value :  1.30000e-05
 Reference value :  1.30000e-05
 Reference value :  1.30000e-05
 Reference value :  1.30001e-05
 Reference value :  1.30001e-05
 Reference value :  1.30001e-05
 Reference value :  1.30001e-05
 Reference value :  1.30001e-05
 Reference value :  1.30002e-05
 Reference value :  1.30002e-05
 Reference value :  1.30004e-05
 Reference value :  1.30006e-05
 Reference value :  1.30009e-05
 Reference value :  1.30016e-05
 Reference value :  1.30022e-05
 Reference value :  1.30029e-05
 Reference value :  1.30036e-05
 Reference value :  1.30043e-05
 Reference value :  1.30052e-05
 Reference value :  1.30061e-05
 Reference value :  1.30070e-05
 Reference value :  1.30084e-05
 Reference value :  1.30096e-05
 Reference value :  1.30112e-05
 Reference value :  1.30125e-05
 Reference value :  1.30139e-05
 Reference value :  1.30153e-05
 Reference value :  1.30170e-05
 Reference value :  1.30190e-05
 Reference value :  1.30208e-05
 Reference value :  1.30244e-05
 Reference value :  1.30316e-05
 Reference value :  1.30440e-05
 Reference value :  1.30688e-05
 Reference value :  1.31183e-05
 Reference value :  1.32174e-05
 Reference value :  1.32501e-05
 Reference value :  1.32501e-05
 Reference value :  1.32501e-05
 Reference value :  1.32502e-05
 Reference value :  1.32502e-05
 Reference value :  1.32502e-05
 Reference value :  1.32502e-05
 Reference value :  1.32502e-05
 Reference value :  1.32502e-05
 Reference value :  1.32502e-05
 Reference value :  1.32502e-05
 Reference value :  1.32503e-05
 Reference value :  1.32504e-05
 Reference value :  1.32506e-05
 Reference value :  1.32509e-05
 Reference value :  1.32515e-05
 Reference value :  1.32522e-05
 Reference value :  1.32529e-05
 Reference value :  1.32537e-05
 Reference value :  1.32548e-05
 Reference value :  1.32557e-05
 Reference value :  1.32568e-05
 Reference value :  1.32577e-05
 Reference value :  1.32587e-05
 Reference value :  1.32599e-05
 Reference value :  1.32611e-05
 Reference value :  1.32624e-05
 Reference value :  1.32642e-05
 Reference value :  1.32664e-05
 Reference value :  1.32691e-05
 Reference value :  1.32727e-05
 Reference value :  1.32779e-05
 Reference value :  1.32881e-05
 Reference value :  1.33044e-05
 Reference value :  1.33369e-05
 Reference value :  1.34020e-05
 Reference value :  1.35000e-05
 Reference value :  1.35000e-05
 Reference value :  1.35000e-05
 Reference value :  1.35001e-05
 Reference value :  1.35001e-05
 Reference value :  1.35001e-05
 Reference value :  1.35001e-05
 Reference value :  1.35001e-05
 Reference value :  1.35002e-05
 Reference value :  1.35002e-05
 Reference value :  1.35004e-05
 Reference value :  1.35006e-05
 Reference value :  1.35009e-05
 Reference value :  1.35016e-05
 Reference value :  1.35022e-05
 Reference value :  1.35029e-05
 Reference value :  1.35036e-05
 Reference value :  1.35044e-05
 Reference value :  1.35052e-05
 Reference value :  1.35061e-05
 Reference value :  1.35070e-05
 Reference value :  1.35079e-05
 Reference value :  1.35088e-05
 Reference value :  1.35098e-05
 Reference value :  1.35108e-05
 Reference value :  1.35122e-05
 Reference value :  1.35139e-05
 Reference value :  1.35154e-05
 Reference value :  1.35171e-05
 Reference value :  1.35188e-05
 Reference value :  1.35205e-05
 Reference value :  1.35223e-05
 Reference value :  1.35237e-05
 Reference value :  1.35250e-05
 Reference value :  1.35267e-05
 Reference value :  1.35283e-05
 Reference value :  1.35299e-05
 Reference value :  1.35319e-05
 Reference value :  1.35339e-05
 Reference value :  1.35369e-05
 Reference value :  1.35407e-05
 Reference value :  1.35453e-05
 Reference value :  1.35505e-05
 Reference value :  1.35551e-05
 Reference value :  1.35583e-05
 Reference value :  1.35614e-05
 Reference value :  1.35648e-05
 Reference value :  1.35684e-05
 Reference value :  1.35739e-05
 Reference value :  1.35800e-05
 Reference value :  1.35890e-05
 Reference value :  1.36014e-05
 Reference value :  1.36189e-05
 Reference value :  1.36445e-05
 Reference value :  1.36811e-05
 Reference value :  1.37349e-05
 Reference value :  1.37501e-05
 Reference value :  1.37501e-05
 Reference value :  1.37501e-05
 Reference value :  1.37502e-05
 Reference value :  1.37502e-05
 Reference value :  1.37502e-05
 Reference value :  1.37502e-05
 Reference value :  1.37502e-05
 Reference value :  1.37502e-05
 Reference value :  1.37502e-05
 Reference value :  1.37502e-05
 Reference value :  1.37503e-05
 Reference value :  1.37504e-05
 Reference value :  1.37506e-05
 Reference value :  1.37509e-05
 Reference value :  1.37515e-05
 Reference value :  1.37522e-05
 Reference value :  1.37529e-05
 Reference value :  1.37537e-05
 Reference value :  1.37548e-05
 Reference value :  1.37558e-05
 Reference value :  1.37569e-05
 Reference value :  1.37580e-05
 Reference value :  1.37591e-05
 Reference value :  1.37608e-05
 Reference value :  1.37626e-05
 Reference value :  1.37654e-05
 Reference value :  1.37690e-05
 Reference value :  1.37743e-05
 Reference value :  1.37849e-05
 Reference value :  1.38032e-05
 Reference value :  1.38366e-05
 Reference value :  1.39033e-05
 Reference value :  1.40000e-05
 Reference value :  1.40000e-05
 Reference value :  1.40000e-05
 Reference value :  1.40001e-05
 Reference value :  1.40001e-05
 Reference value :  1.40001e-05
 Reference value :  1.40001e-05
 Reference value :  1.40001e-05
 Reference value :  1.40002e-05
 Reference value :  1.40002e-05
 Reference value :  1.40004e-05
 Reference value :  1.40006e-05
 Reference value :  1.40009e-05
 Reference value :  1.40016e-05
 Reference value :  1.40022e-05
 Reference value :  1.40029e-05
 Reference value :  1.40036e-05
 Reference value :  1.40044e-05
 Reference value :  1.40052e-05
 Reference value :  1.40062e-05
 Reference value :  1.40072e-05
 Reference value :  1.40085e-05
 Reference value :  1.40099e-05
 Reference value :  1.40113e-05
 Reference value :  1.40129e-05
 Reference value :  1.40146e-05
 Reference value :  1.40162e-05
 Reference value :  1.40178e-05
 Reference value :  1.40196e-05
 Reference value :  1.40216e-05
 Reference value :  1.40253e-05
 Reference value :  1.40306e-05
 Reference value :  1.40410e-05
 Reference value :  1.40604e-05
 Reference value :  1.40971e-05
 Reference value :  1.41705e-05
 Reference value :  1.42501e-05
 Reference value :  1.42501e-05
 Reference value :  1.42501e-05
 Reference value :  1.42502e-05
 Reference value :  1.42502e-05
 Reference value :  1.42502e-05
 Reference value :  1.42502e-05
 Reference value :  1.42502e-05
 Reference value :  1.42502e-05
 Reference value :  1.42502e-05
 Reference value :  1.42502e-05
 Reference value :  1.42503e-05
 Reference value :  1.42504e-05
 Reference value :  1.42506e-05
 Reference value :  1.42509e-05
 Reference value :  1.42515e-05
 Reference value :  1.42522e-05
 Reference value :  1.42529e-05
 Reference value :  1.42537e-05
 Reference value :  1.42548e-05
 Reference value :  1.42557e-05
 Reference value :  1.42568e-05
 Reference value :  1.42578e-05
 Reference value :  1.42588e-05
 Reference value :  1.42599e-05
 Reference value :  1.42612e-05
 Reference value :  1.42638e-05
 Reference value :  1.42666e-05
 Reference value :  1.42711e-05
 Reference value :  1.42773e-05
 Reference value :  1.42897e-05
 Reference value :  1.43144e-05
 Reference value :  1.43638e-05
 Reference value :  1.44627e-05
 Reference value :  1.45000e-05
 Reference value :  1.45000e-05
 Reference value :  1.45000e-05
 Reference value :  1.45001e-05
 Reference value :  1.45001e-05
 Reference value :  1.45001e-05
 Reference value :  1.45001e-05
 Reference value :  1.45001e-05
 Reference value :  1.45002e-05
 Reference value :  1.45002e-05
 Reference value :  1.45004e-05
 Reference value :  1.45006e-05
 Reference value :  1.45009e-05
 Reference value :  1.45016e-05
 Reference value :  1.45022e-05
 Reference value :  1.45029e-05
 Reference value :  1.45036e-05
 Reference value :  1.45044e-05
 Reference value :  1.45052e-05
 Reference value :  1.45062e-05
 Reference value :  1.45071e-05
 Reference value :  1.45081e-05
 Reference value :  1.45090e-05
 Reference value :  1.45100e-05
 Reference value :  1.45110e-05
 Reference value :  1.45123e-05
 Reference value :  1.45142e-05
 Reference value :  1.45173e-05
 Reference value :  1.45203e-05
 Reference value :  1.45227e-05
 Reference value :  1.45247e-05
 Reference value :  1.45267e-05
 Reference value :  1.45287e-05
 Reference value :  1.45306e-05
 Reference value :  1.45328e-05
 Reference value :  1.45350e-05
 Reference value :  1.45384e-05
 Reference value :  1.45427e-05
 Reference value :  1.45492e-05
 Reference value :  1.45557e-05
 Reference value :  1.45629e-05
 Reference value :  1.45707e-05
 Reference value :  1.45762e-05
 Reference value :  1.45819e-05
 Reference value :  1.45879e-05
 Reference value :  1.45946e-05
 Reference value :  1.46026e-05
 Reference value :  1.46099e-05
 Reference value :  1.46178e-05
 Reference value :  1.46337e-05
 Reference value :  1.46502e-05
 Reference value :  1.46784e-05
 Reference value :  1.47176e-05
 Reference value :  1.47501e-05
 Reference value :  1.47501e-05
 Reference value :  1.47501e-05
 Reference value :  1.47502e-05
 Reference value :  1.47502e-05
 Reference value :  1.47502e-05
 Reference value :  1.47502e-05
 Reference value :  1.47502e-05
 Reference value :  1.47502e-05
 Reference value :  1.47502e-05
 Reference value :  1.47502e-05
 Reference value :  1.47503e-05
 Reference value :  1.47504e-05
 Reference value :  1.47506e-05
 Reference value :  1.47509e-05
 Reference value :  1.47515e-05
 Reference value :  1.47522e-05
 Reference value :  1.47529e-05
 Reference value :  1.47538e-05
 Reference value :  1.47548e-05
 Reference value :  1.47557e-05
 Reference value :  1.47567e-05
 Reference value :  1.47577e-05
 Reference value :  1.47587e-05
 Reference value :  1.47604e-05
 Reference value :  1.47620e-05
 Reference value :  1.47649e-05
 Reference value :  1.47680e-05
 Reference value :  1.47730e-05
 Reference value :  1.47821e-05
 Reference value :  1.48004e-05
 Reference value :  1.48369e-05
 Reference value :  1.49100e-05
 Reference value :  1.50000e-05
 Reference value :  1.50000e-05
 Reference value :  1.50000e-05
 Reference value :  1.50001e-05
 Reference value :  1.50001e-05
 Reference value :  1.50001e-05
 Reference value :  1.50001e-05
 Reference value :  1.50001e-05
 Reference value :  1.50002e-05
 Reference value :  1.50002e-05
 Reference value :  1.50004e-05
 Reference value :  1.50006e-05
 Reference value :  1.50009e-05
 Reference value :  1.50016e-05
 Reference value :  1.50022e-05
 Reference value :  1.50029e-05
 Reference value :  1.50036e-05
 Reference value :  1.50043e-05
 Reference value :  1.50052e-05
 Reference value :  1.50061e-05
 Reference value :  1.50070e-05
 Reference value :  1.50084e-05
 Reference value :  1.50096e-05
 Reference value :  1.50112e-05
 Reference value :  1.50125e-05
 Reference value :  1.50139e-05
 Reference value :  1.50153e-05
 Reference value :  1.50169e-05
 Reference value :  1.50185e-05
 Reference value :  1.50203e-05
 Reference value :  1.50239e-05
 Reference value :  1.50311e-05
 Reference value :  1.50443e-05
 Reference value :  1.50705e-05
 Reference value :  1.51231e-05
 Reference value :  1.52282e-05
 Reference value :  1.52501e-05
 Reference value :  1.52501e-05
 Reference value :  1.52501e-05
 Reference value :  1.52502e-05
 Reference value :  1.52502e-05
 Reference value :  1.52502e-05
 Reference value :  1.52502e-05
 Reference value :  1.52502e-05
 Reference value :  1.52502e-05
 Reference value :  1.52502e-05
 Reference value :  1.52502e-05
 Reference value :  1.52503e-05
 Reference value :  1.52504e-05
 Reference value :  1.52506e-05
 Reference value :  1.52509e-05
 Reference value :  1.52515e-05
 Reference value :  1.52522e-05
 Reference value :  1.52529e-05
 Reference value :  1.52537e-05
 Reference value :  1.52548e-05
 Reference value :  1.52557e-05
 Reference value :  1.52568e-05
 Reference value :  1.52578e-05
 Reference value :  1.52588e-05
 Reference value :  1.52599e-05
 Reference value :  1.52612e-05
 Reference value :  1.52625e-05
 Reference value :  1.52642e-05
 Reference value :  1.52666e-05
 Reference value :  1.52693e-05
 Reference value :  1.52731e-05
 Reference value :  1.52783e-05
 Reference value :  1.52887e-05
 Reference value :  1.53082e-05
 Reference value :  1.53471e-05
 Reference value :  1.54248e-05
 Reference value :  1.55000e-05
 Reference value :  1.55011e-05
 Reference value :  1.55032e-05
 Reference value :  1.55043e-05
 Reference value :  1.55054e-05
 Reference value :  1.55064e-05
 Reference value :  1.55073e-05
 Reference value :  1.55082e-05
 Reference value :  1.55091e-05
 Reference value :  1.55100e-05
 Reference value :  1.55110e-05
[...]
 Reference value :  2.67728e-04
 Reference value :  2.67750e-04
 Reference value :  2.67750e-04
 Reference value :  2.67750e-04
 Reference value :  2.67750e-04
 Reference value :  2.67750e-04
 Reference value :  2.67750e-04
 Reference value :  2.67750e-04
 Reference value :  2.67750e-04
 Reference value :  2.67750e-04
 Reference value :  2.67750e-04
 Reference value :  2.67750e-04
 Reference value :  2.67750e-04
 Reference value :  2.67750e-04
 Reference value :  2.67751e-04
 Reference value :  2.67751e-04
 Reference value :  2.67752e-04
 Reference value :  2.67752e-04
 Reference value :  2.67753e-04
 Reference value :  2.67754e-04
 Reference value :  2.67755e-04
 Reference value :  2.67756e-04
 Reference value :  2.67757e-04
 Reference value :  2.67758e-04
 Reference value :  2.67759e-04
 Reference value :  2.67761e-04
 Reference value :  2.67763e-04
 Reference value :  2.67765e-04
 Reference value :  2.67769e-04
 Reference value :  2.67774e-04
 Reference value :  2.67785e-04
 Reference value :  2.67803e-04
 Reference value :  2.67836e-04
 Reference value :  2.67903e-04
 Reference value :  2.68000e-04
 Reference value :  2.68000e-04
 Reference value :  2.68000e-04
 Reference value :  2.68000e-04
 Reference value :  2.68000e-04
 Reference value :  2.68000e-04
 Reference value :  2.68000e-04
 Reference value :  2.68000e-04
 Reference value :  2.68000e-04
 Reference value :  2.68000e-04
 Reference value :  2.68000e-04
 Reference value :  2.68001e-04
 Reference value :  2.68001e-04
 Reference value :  2.68002e-04
 Reference value :  2.68002e-04
 Reference value :  2.68003e-04
 Reference value :  2.68004e-04
 Reference value :  2.68004e-04
 Reference value :  2.68005e-04
 Reference value :  2.68006e-04
 Reference value :  2.68007e-04
 Reference value :  2.68008e-04
 Reference value :  2.68010e-04
 Reference value :  2.68011e-04
 Reference value :  2.68013e-04
 Reference value :  2.68014e-04
 Reference value :  2.68016e-04
 Reference value :  2.68017e-04
 Reference value :  2.68019e-04
 Reference value :  2.68021e-04
 Reference value :  2.68025e-04
 Reference value :  2.68031e-04
 Reference value :  2.68042e-04
 Reference value :  2.68066e-04
 Reference value :  2.68114e-04
 Reference value :  2.68210e-04
 Reference value :  2.68250e-04
 Reference value :  2.68250e-04
 Reference value :  2.68250e-04
 Reference value :  2.68250e-04
 Reference value :  2.68250e-04
 Reference value :  2.68250e-04
 Reference value :  2.68250e-04
 Reference value :  2.68250e-04
 Reference value :  2.68250e-04
 Reference value :  2.68250e-04
 Reference value :  2.68250e-04
 Reference value :  2.68250e-04
 Reference value :  2.68250e-04
 Reference value :  2.68251e-04
 Reference value :  2.68251e-04
 Reference value :  2.68252e-04
 Reference value :  2.68252e-04
 Reference value :  2.68253e-04
 Reference value :  2.68254e-04
 Reference value :  2.68255e-04
 Reference value :  2.68256e-04
 Reference value :  2.68257e-04
 Reference value :  2.68258e-04
 Reference value :  2.68259e-04
 Reference value :  2.68260e-04
 Reference value :  2.68261e-04
 Reference value :  2.68264e-04
 Reference value :  2.68266e-04
 Reference value :  2.68271e-04
 Reference value :  2.68277e-04
 Reference value :  2.68289e-04
 Reference value :  2.68313e-04
 Reference value :  2.68361e-04
 Reference value :  2.68456e-04
 Reference value :  2.68500e-04
 Reference value :  2.68500e-04
 Reference value :  2.68500e-04
 Reference value :  2.68500e-04
 Reference value :  2.68500e-04
 Reference value :  2.68500e-04
 Reference value :  2.68500e-04
 Reference value :  2.68500e-04
 Reference value :  2.68500e-04
 Reference value :  2.68500e-04
 Reference value :  2.68500e-04
 Reference value :  2.68501e-04
 Reference value :  2.68501e-04
 Reference value :  2.68502e-04
 Reference value :  2.68502e-04
 Reference value :  2.68503e-04
 Reference value :  2.68504e-04
 Reference value :  2.68504e-04
 Reference value :  2.68505e-04
 Reference value :  2.68506e-04
 Reference value :  2.68507e-04
 Reference value :  2.68508e-04
 Reference value :  2.68509e-04
 Reference value :  2.68510e-04
 Reference value :  2.68511e-04
 Reference value :  2.68512e-04
 Reference value :  2.68514e-04
 Reference value :  2.68517e-04
 Reference value :  2.68520e-04
 Reference value :  2.68523e-04
 Reference value :  2.68525e-04
 Reference value :  2.68526e-04
 Reference value :  2.68528e-04
 Reference value :  2.68530e-04
 Reference value :  2.68533e-04
 Reference value :  2.68535e-04
 Reference value :  2.68538e-04
 Reference value :  2.68543e-04
 Reference value :  2.68550e-04
 Reference value :  2.68563e-04
 Reference value :  2.68582e-04
 Reference value :  2.68602e-04
 Reference value :  2.68620e-04
 Reference value :  2.68647e-04
 Reference value :  2.68680e-04
 Reference value :  2.68720e-04
 Reference value :  2.68750e-04
 Reference value :  2.68750e-04
 Reference value :  2.68750e-04
 Reference value :  2.68750e-04
 Reference value :  2.68750e-04
 Reference value :  2.68750e-04
 Reference value :  2.68750e-04
 Reference value :  2.68750e-04
 Reference value :  2.68750e-04
 Reference value :  2.68750e-04
 Reference value :  2.68750e-04
 Reference value :  2.68750e-04
 Reference value :  2.68750e-04
 Reference value :  2.68751e-04
 Reference value :  2.68751e-04
 Reference value :  2.68752e-04
 Reference value :  2.68752e-04
 Reference value :  2.68753e-04
 Reference value :  2.68754e-04
 Reference value :  2.68755e-04
 Reference value :  2.68756e-04
 Reference value :  2.68757e-04
 Reference value :  2.68758e-04
 Reference value :  2.68759e-04
 Reference value :  2.68761e-04
 Reference value :  2.68763e-04
 Reference value :  2.68765e-04
 Reference value :  2.68769e-04
 Reference value :  2.68774e-04
 Reference value :  2.68785e-04
 Reference value :  2.68803e-04
 Reference value :  2.68837e-04
 Reference value :  2.68904e-04
 Reference value :  2.69000e-04
 Reference value :  2.69000e-04
 Reference value :  2.69000e-04
 Reference value :  2.69000e-04
 Reference value :  2.69000e-04
 Reference value :  2.69000e-04
 Reference value :  2.69000e-04
 Reference value :  2.69000e-04
 Reference value :  2.69000e-04
 Reference value :  2.69000e-04
 Reference value :  2.69000e-04
 Reference value :  2.69001e-04
 Reference value :  2.69001e-04
 Reference value :  2.69002e-04
 Reference value :  2.69002e-04
 Reference value :  2.69003e-04
 Reference value :  2.69004e-04
 Reference value :  2.69004e-04
 Reference value :  2.69005e-04
 Reference value :  2.69006e-04
 Reference value :  2.69007e-04
 Reference value :  2.69009e-04
 Reference value :  2.69010e-04
 Reference value :  2.69011e-04
 Reference value :  2.69013e-04
 Reference value :  2.69015e-04
 Reference value :  2.69016e-04
 Reference value :  2.69018e-04
 Reference value :  2.69020e-04
 Reference value :  2.69022e-04
 Reference value :  2.69025e-04
 Reference value :  2.69031e-04
 Reference value :  2.69041e-04
 Reference value :  2.69060e-04
 Reference value :  2.69097e-04
 Reference value :  2.69171e-04
 Reference value :  2.69250e-04
 Reference value :  2.69250e-04
 Reference value :  2.69250e-04
 Reference value :  2.69250e-04
 Reference value :  2.69250e-04
 Reference value :  2.69250e-04
 Reference value :  2.69250e-04
 Reference value :  2.69250e-04
 Reference value :  2.69250e-04
 Reference value :  2.69250e-04
 Reference value :  2.69250e-04
 Reference value :  2.69250e-04
 Reference value :  2.69250e-04
 Reference value :  2.69251e-04
 Reference value :  2.69251e-04
 Reference value :  2.69252e-04
 Reference value :  2.69252e-04
 Reference value :  2.69253e-04
 Reference value :  2.69254e-04
 Reference value :  2.69255e-04
 Reference value :  2.69256e-04
 Reference value :  2.69257e-04
 Reference value :  2.69258e-04
 Reference value :  2.69259e-04
 Reference value :  2.69260e-04
 Reference value :  2.69261e-04
 Reference value :  2.69264e-04
 Reference value :  2.69267e-04
 Reference value :  2.69271e-04
 Reference value :  2.69277e-04
 Reference value :  2.69289e-04
 Reference value :  2.69313e-04
 Reference value :  2.69362e-04
 Reference value :  2.69459e-04
 Reference value :  2.69500e-04
 Reference value :  2.69500e-04
 Reference value :  2.69500e-04
 Reference value :  2.69500e-04
 Reference value :  2.69500e-04
 Reference value :  2.69500e-04
 Reference value :  2.69500e-04
 Reference value :  2.69500e-04
 Reference value :  2.69500e-04
 Reference value :  2.69500e-04
 Reference value :  2.69500e-04
 Reference value :  2.69501e-04
 Reference value :  2.69501e-04
 Reference value :  2.69502e-04
 Reference value :  2.69502e-04
 Reference value :  2.69503e-04
 Reference value :  2.69504e-04
 Reference value :  2.69504e-04
 Reference value :  2.69505e-04
 Reference value :  2.69506e-04
 Reference value :  2.69507e-04
 Reference value :  2.69508e-04
 Reference value :  2.69509e-04
 Reference value :  2.69510e-04
 Reference value :  2.69511e-04
 Reference value :  2.69512e-04
 Reference value :  2.69514e-04
 Reference value :  2.69517e-04
 Reference value :  2.69520e-04
 Reference value :  2.69523e-04
 Reference value :  2.69525e-04
 Reference value :  2.69527e-04
 Reference value :  2.69529e-04
 Reference value :  2.69531e-04
 Reference value :  2.69533e-04
 Reference value :  2.69535e-04
 Reference value :  2.69539e-04
 Reference value :  2.69543e-04
 Reference value :  2.69552e-04
 Reference value :  2.69562e-04
 Reference value :  2.69573e-04
 Reference value :  2.69586e-04
 Reference value :  2.69606e-04
 Reference value :  2.69631e-04
 Reference value :  2.69681e-04
 Reference value :  2.69744e-04
 Reference value :  2.69750e-04
 Reference value :  2.69750e-04
 Reference value :  2.69750e-04
 Reference value :  2.69750e-04
 Reference value :  2.69750e-04
 Reference value :  2.69750e-04
 Reference value :  2.69750e-04
 Reference value :  2.69750e-04
 Reference value :  2.69750e-04
 Reference value :  2.69750e-04
 Reference value :  2.69750e-04
 Reference value :  2.69750e-04
 Reference value :  2.69750e-04
 Reference value :  2.69751e-04
 Reference value :  2.69751e-04
 Reference value :  2.69752e-04
 Reference value :  2.69752e-04
 Reference value :  2.69753e-04
 Reference value :  2.69754e-04
 Reference value :  2.69755e-04
 Reference value :  2.69756e-04
 Reference value :  2.69757e-04
 Reference value :  2.69758e-04
 Reference value :  2.69759e-04
 Reference value :  2.69761e-04
 Reference value :  2.69763e-04
 Reference value :  2.69765e-04
 Reference value :  2.69769e-04
 Reference value :  2.69774e-04
 Reference value :  2.69785e-04
 Reference value :  2.69803e-04
 Reference value :  2.69837e-04
 Reference value :  2.69904e-04
 Reference value :  2.70000e-04
 Reference value :  2.70000e-04
 Reference value :  2.70000e-04
 Reference value :  2.70000e-04
 Reference value :  2.70000e-04
 Reference value :  2.70000e-04
 Reference value :  2.70000e-04
 Reference value :  2.70000e-04
 Reference value :  2.70000e-04
 Reference value :  2.70000e-04
 Reference value :  2.70000e-04
 Reference value :  2.70001e-04
 Reference value :  2.70001e-04
 Reference value :  2.70002e-04
 Reference value :  2.70002e-04
 Reference value :  2.70003e-04
 Reference value :  2.70004e-04
 Reference value :  2.70004e-04
 Reference value :  2.70005e-04
 Reference value :  2.70006e-04
 Reference value :  2.70007e-04
 Reference value :  2.70008e-04
 Reference value :  2.70010e-04
 Reference value :  2.70011e-04
 Reference value :  2.70013e-04
 Reference value :  2.70014e-04
 Reference value :  2.70016e-04
 Reference value :  2.70017e-04
 Reference value :  2.70019e-04
 Reference value :  2.70021e-04
 Reference value :  2.70025e-04
 Reference value :  2.70030e-04
 Reference value :  2.70042e-04
 Reference value :  2.70064e-04
 Reference value :  2.70110e-04
 Reference value :  2.70200e-04
 Reference value :  2.70250e-04
 Reference value :  2.70250e-04
 Reference value :  2.70250e-04
 Reference value :  2.70250e-04
 Reference value :  2.70250e-04
 Reference value :  2.70250e-04
 Reference value :  2.70250e-04
 Reference value :  2.70250e-04
 Reference value :  2.70250e-04
 Reference value :  2.70250e-04
 Reference value :  2.70250e-04
 Reference value :  2.70250e-04
 Reference value :  2.70250e-04
 Reference value :  2.70251e-04
 Reference value :  2.70251e-04
 Reference value :  2.70252e-04
 Reference value :  2.70252e-04
 Reference value :  2.70253e-04
 Reference value :  2.70254e-04
 Reference value :  2.70255e-04
 Reference value :  2.70256e-04
 Reference value :  2.70257e-04
 Reference value :  2.70258e-04
 Reference value :  2.70259e-04
 Reference value :  2.70260e-04
 Reference value :  2.70261e-04
 Reference value :  2.70264e-04
 Reference value :  2.70267e-04
 Reference value :  2.70271e-04
 Reference value :  2.70277e-04
 Reference value :  2.70289e-04
 Reference value :  2.70313e-04
 Reference value :  2.70362e-04
 Reference value :  2.70459e-04
 Reference value :  2.70500e-04
 Reference value :  2.70500e-04
 Reference value :  2.70500e-04
 Reference value :  2.70500e-04
 Reference value :  2.70500e-04
 Reference value :  2.70500e-04
 Reference value :  2.70500e-04
 Reference value :  2.70500e-04
 Reference value :  2.70500e-04
 Reference value :  2.70500e-04
 Reference value :  2.70500e-04
 Reference value :  2.70501e-04
 Reference value :  2.70501e-04
 Reference value :  2.70502e-04
 Reference value :  2.70502e-04
 Reference value :  2.70503e-04
 Reference value :  2.70504e-04
 Reference value :  2.70504e-04
 Reference value :  2.70505e-04
 Reference value :  2.70506e-04
 Reference value :  2.70507e-04
 Reference value :  2.70508e-04
 Reference value :  2.70509e-04
 Reference value :  2.70510e-04
 Reference value :  2.70511e-04
 Reference value :  2.70512e-04
 Reference value :  2.70514e-04
 Reference value :  2.70517e-04
 Reference value :  2.70520e-04
 Reference value :  2.70523e-04
 Reference value :  2.70525e-04
 Reference value :  2.70527e-04
 Reference value :  2.70529e-04
 Reference value :  2.70531e-04
 Reference value :  2.70534e-04
 Reference value :  2.70536e-04
 Reference value :  2.70539e-04
 Reference value :  2.70544e-04
 Reference value :  2.70550e-04
 Reference value :  2.70556e-04
 Reference value :  2.70565e-04
 Reference value :  2.70581e-04
 Reference value :  2.70604e-04
 Reference value :  2.70644e-04
 Reference value :  2.70719e-04
 Reference value :  2.70750e-04
 Reference value :  2.70750e-04
 Reference value :  2.70750e-04
 Reference value :  2.70750e-04
 Reference value :  2.70750e-04
 Reference value :  2.70750e-04
 Reference value :  2.70750e-04
 Reference value :  2.70750e-04
 Reference value :  2.70750e-04
 Reference value :  2.70750e-04
 Reference value :  2.70750e-04
 Reference value :  2.70750e-04
 Reference value :  2.70750e-04
 Reference value :  2.70751e-04
 Reference value :  2.70751e-04
 Reference value :  2.70752e-04
 Reference value :  2.70752e-04
 Reference value :  2.70753e-04
 Reference value :  2.70754e-04
 Reference value :  2.70755e-04
 Reference value :  2.70756e-04
 Reference value :  2.70757e-04
 Reference value :  2.70758e-04
 Reference value :  2.70759e-04
 Reference value :  2.70761e-04
 Reference value :  2.70762e-04
 Reference value :  2.70765e-04
 Reference value :  2.70769e-04
 Reference value :  2.70774e-04
 Reference value :  2.70784e-04
 Reference value :  2.70803e-04
 Reference value :  2.70837e-04
 Reference value :  2.70904e-04
 Reference value :  2.71000e-04
 Reference value :  2.71000e-04
 Reference value :  2.71000e-04
 Reference value :  2.71000e-04
 Reference value :  2.71000e-04
 Reference value :  2.71000e-04
 Reference value :  2.71000e-04
 Reference value :  2.71000e-04
 Reference value :  2.71000e-04
 Reference value :  2.71000e-04
 Reference value :  2.71000e-04
 Reference value :  2.71001e-04
 Reference value :  2.71001e-04
 Reference value :  2.71002e-04
 Reference value :  2.71002e-04
 Reference value :  2.71003e-04
 Reference value :  2.71004e-04
 Reference value :  2.71004e-04
 Reference value :  2.71005e-04
 Reference value :  2.71006e-04
 Reference value :  2.71007e-04
 Reference value :  2.71008e-04
 Reference value :  2.71010e-04
 Reference value :  2.71012e-04
 Reference value :  2.71013e-04
 Reference value :  2.71015e-04
 Reference value :  2.71016e-04
 Reference value :  2.71018e-04
 Reference value :  2.71019e-04
 Reference value :  2.71021e-04
 Reference value :  2.71025e-04
 Reference value :  2.71031e-04
 Reference value :  2.71044e-04
 Reference value :  2.71069e-04
 Reference value :  2.71119e-04
 Reference value :  2.71220e-04
 Reference value :  2.71250e-04
 Reference value :  2.71250e-04
 Reference value :  2.71250e-04
 Reference value :  2.71250e-04
 Reference value :  2.71250e-04
 Reference value :  2.71250e-04
 Reference value :  2.71250e-04
 Reference value :  2.71250e-04
 Reference value :  2.71250e-04
 Reference value :  2.71250e-04
 Reference value :  2.71250e-04
 Reference value :  2.71250e-04
 Reference value :  2.71250e-04
 Reference value :  2.71251e-04
 Reference value :  2.71251e-04
 Reference value :  2.71252e-04
 Reference value :  2.71252e-04
 Reference value :  2.71253e-04
 Reference value :  2.71254e-04
 Reference value :  2.71255e-04
 Reference value :  2.71256e-04
 Reference value :  2.71257e-04
 Reference value :  2.71258e-04
 Reference value :  2.71259e-04
 Reference value :  2.71260e-04
 Reference value :  2.71261e-04
 Reference value :  2.71264e-04
 Reference value :  2.71266e-04
 Reference value :  2.71271e-04
 Reference value :  2.71276e-04
 Reference value :  2.71288e-04
 Reference value :  2.71311e-04
 Reference value :  2.71357e-04
 Reference value :  2.71450e-04
 Reference value :  2.71500e-04
 Reference value :  2.71500e-04
 Reference value :  2.71500e-04
 Reference value :  2.71500e-04
 Reference value :  2.71500e-04
 Reference value :  2.71500e-04
 Reference value :  2.71500e-04
 Reference value :  2.71500e-04
 Reference value :  2.71500e-04
 Reference value :  2.71500e-04
 Reference value :  2.71500e-04
 Reference value :  2.71501e-04
 Reference value :  2.71501e-04
 Reference value :  2.71502e-04
 Reference value :  2.71502e-04
 Reference value :  2.71503e-04
 Reference value :  2.71504e-04
 Reference value :  2.71504e-04
 Reference value :  2.71505e-04
 Reference value :  2.71506e-04
 Reference value :  2.71507e-04
 Reference value :  2.71508e-04
 Reference value :  2.71509e-04
 Reference value :  2.71510e-04
 Reference value :  2.71511e-04
 Reference value :  2.71512e-04
 Reference value :  2.71514e-04
 Reference value :  2.71517e-04
 Reference value :  2.71520e-04
 Reference value :  2.71523e-04
 Reference value :  2.71525e-04
 Reference value :  2.71528e-04
 Reference value :  2.71531e-04
 Reference value :  2.71536e-04
 Reference value :  2.71542e-04
 Reference value :  2.71552e-04
 Reference value :  2.71568e-04
 Reference value :  2.71595e-04
 Reference value :  2.71647e-04
 Reference value :  2.71749e-04
 Reference value :  2.71750e-04
 Reference value :  2.71750e-04
 Reference value :  2.71750e-04
 Reference value :  2.71750e-04
 Reference value :  2.71750e-04
 Reference value :  2.71750e-04
 Reference value :  2.71750e-04
 Reference value :  2.71750e-04
 Reference value :  2.71750e-04
 Reference value :  2.71750e-04
 Reference value :  2.71750e-04
 Reference value :  2.71750e-04
 Reference value :  2.71750e-04
 Reference value :  2.71751e-04
 Reference value :  2.71751e-04
 Reference value :  2.71752e-04
 Reference value :  2.71752e-04
 Reference value :  2.71753e-04
 Reference value :  2.71754e-04
 Reference value :  2.71755e-04
 Reference value :  2.71756e-04
 Reference value :  2.71758e-04
 Reference value :  2.71759e-04
 Reference value :  2.71761e-04
 Reference value :  2.71763e-04
 Reference value :  2.71766e-04
 Reference value :  2.71770e-04
 Reference value :  2.71776e-04
 Reference value :  2.71788e-04
 Reference value :  2.71811e-04
 Reference value :  2.71857e-04
 Reference value :  2.71950e-04
 Reference value :  2.72000e-04
No. of Data Rows : 41933
ngspice-44 done
