
Note: Compatibility modes selected: hs a


Circuit: ** sch_path: /home/ece/cace/sar-adc-using-sky130-pdk/runs/run_2025-09-12_02-18-06/parameters/dnl/run_0/sar_output_dnl.sch

option SCALE: Scale is set to 1e-06 for instance and model parameters
option SCALE: Scale is set to 1e-06 for instance and model parameters
option SCALE: Scale is set to 1e-06 for instance and model parameters
option SCALE: Scale is set to 1e-06 for instance and model parameters
Doing analysis at TEMP = 27.000000 and TNOM = 27.000000

Using KLU as Direct Linear Solver
Operating point simulation skipped by 'uic',
  now using transient initial conditions.
 Reference value :  1.00000e-12
 Reference value :  1.02772e-12
 Reference value :  1.08316e-12
 Reference value :  1.19404e-12
 Reference value :  1.33849e-12
 Reference value :  1.62739e-12
 Reference value :  2.20519e-12
 Reference value :  3.06308e-12
 Reference value :  3.96369e-12
 Reference value :  5.17270e-12
 Reference value :  6.88223e-12
 Reference value :  1.00133e-11
 Reference value :  1.36630e-11
 Reference value :  2.03020e-11
 Reference value :  2.72133e-11
 Reference value :  3.60733e-11
 Reference value :  4.69704e-11
 Reference value :  6.49497e-11
 Reference value :  8.49991e-11
 Reference value :  1.00000e-10
 Reference value :  1.01258e-10
 Reference value :  1.03773e-10
 Reference value :  1.08805e-10
 Reference value :  1.18867e-10
 Reference value :  1.38992e-10
 Reference value :  1.79242e-10
 Reference value :  2.59741e-10
 Reference value :  4.11482e-10
 Reference value :  5.77289e-10
 Reference value :  8.46083e-10
 Reference value :  1.21176e-09
 Reference value :  1.66913e-09
 Reference value :  2.40671e-09
 Reference value :  3.12326e-09
 Reference value :  3.76139e-09
 Reference value :  4.54357e-09
 Reference value :  5.37054e-09
 Reference value :  6.29059e-09
 Reference value :  7.55656e-09
 Reference value :  8.86747e-09
 Reference value :  9.94330e-09
 Reference value :  1.09964e-08
 Reference value :  1.18957e-08
 Reference value :  1.28349e-08
 Reference value :  1.44376e-08
 Reference value :  1.63416e-08
 Reference value :  1.97646e-08
 Reference value :  2.34083e-08
 Reference value :  2.64682e-08
 Reference value :  2.92120e-08
 Reference value :  3.20568e-08
 Reference value :  3.57762e-08
 Reference value :  4.03134e-08
 Reference value :  4.64287e-08
 Reference value :  5.74988e-08
 Reference value :  7.47487e-08
 Reference value :  1.08791e-07
 Reference value :  1.63487e-07
 Reference value :  2.34250e-07
 Reference value :  2.50100e-07
 Reference value :  2.50110e-07
 Reference value :  2.50130e-07
 Reference value :  2.50170e-07
 Reference value :  2.50200e-07
 Reference value :  2.50201e-07
 Reference value :  2.50202e-07
 Reference value :  2.50204e-07
 Reference value :  2.50208e-07
 Reference value :  2.50216e-07
 Reference value :  2.50233e-07
 Reference value :  2.50267e-07
 Reference value :  2.50335e-07
 Reference value :  2.50412e-07
 Reference value :  2.50567e-07
 Reference value :  2.50716e-07
 Reference value :  2.51015e-07
 Reference value :  2.51339e-07
 Reference value :  2.51860e-07
 Reference value :  2.52428e-07
 Reference value :  2.53220e-07
 Reference value :  2.54044e-07
 Reference value :  2.55122e-07
 Reference value :  2.55873e-07
 Reference value :  2.56730e-07
 Reference value :  2.57736e-07
 Reference value :  2.58844e-07
 Reference value :  2.60169e-07
 Reference value :  2.62407e-07
 Reference value :  2.64461e-07
 Reference value :  2.68059e-07
 Reference value :  2.72816e-07
 Reference value :  2.82332e-07
 Reference value :  2.98847e-07
 Reference value :  3.27081e-07
 Reference value :  3.83549e-07
 Reference value :  4.96485e-07
 Reference value :  5.00000e-07
 Reference value :  5.00010e-07
 Reference value :  5.00030e-07
 Reference value :  5.00070e-07
 Reference value :  5.00100e-07
 Reference value :  5.00104e-07
 Reference value :  5.00112e-07
 Reference value :  5.00129e-07
 Reference value :  5.00162e-07
 Reference value :  5.00229e-07
 Reference value :  5.00362e-07
 Reference value :  5.00537e-07
 Reference value :  5.00888e-07
 Reference value :  5.01502e-07
 Reference value :  5.02193e-07
 Reference value :  5.02817e-07
 Reference value :  5.03504e-07
 Reference value :  5.04212e-07
 Reference value :  5.05148e-07
 Reference value :  5.06118e-07
 Reference value :  5.07100e-07
 Reference value :  5.08379e-07
 Reference value :  5.09807e-07
 Reference value :  5.11739e-07
 Reference value :  5.14069e-07
 Reference value :  5.15916e-07
 Reference value :  5.17905e-07
 Reference value :  5.19991e-07
 Reference value :  5.22394e-07
 Reference value :  5.25104e-07
 Reference value :  5.27935e-07
 Reference value :  5.33189e-07
 Reference value :  5.41575e-07
 Reference value :  5.51296e-07
 Reference value :  5.70739e-07
 Reference value :  6.09623e-07
 Reference value :  6.73426e-07
 Reference value :  7.50100e-07
 Reference value :  7.50110e-07
 Reference value :  7.50130e-07
 Reference value :  7.50170e-07
 Reference value :  7.50200e-07
 Reference value :  7.50201e-07
 Reference value :  7.50202e-07
 Reference value :  7.50205e-07
 Reference value :  7.50211e-07
 Reference value :  7.50224e-07
 Reference value :  7.50248e-07
 Reference value :  7.50297e-07
 Reference value :  7.50395e-07
 Reference value :  7.50590e-07
 Reference value :  7.50977e-07
 Reference value :  7.51389e-07
 Reference value :  7.51911e-07
 Reference value :  7.52518e-07
 Reference value :  7.53316e-07
 Reference value :  7.54225e-07
 Reference value :  7.55414e-07
 Reference value :  7.56519e-07
 Reference value :  7.57522e-07
 Reference value :  7.58609e-07
 Reference value :  7.59816e-07
 Reference value :  7.61113e-07
 Reference value :  7.63557e-07
 Reference value :  7.66725e-07
 Reference value :  7.72290e-07
 Reference value :  7.83420e-07
 Reference value :  8.03446e-07
 Reference value :  8.42149e-07
 Reference value :  9.15410e-07
 Reference value :  1.00000e-06
 Reference value :  1.00001e-06
 Reference value :  1.00003e-06
 Reference value :  1.00007e-06
 Reference value :  1.00010e-06
 Reference value :  1.00010e-06
 Reference value :  1.00011e-06
 Reference value :  1.00013e-06
 Reference value :  1.00016e-06
 Reference value :  1.00023e-06
 Reference value :  1.00036e-06
 Reference value :  1.00054e-06
 Reference value :  1.00089e-06
 Reference value :  1.00151e-06
 Reference value :  1.00220e-06
 Reference value :  1.00282e-06
 Reference value :  1.00346e-06
 Reference value :  1.00415e-06
 Reference value :  1.00499e-06
 Reference value :  1.00587e-06
 Reference value :  1.00672e-06
 Reference value :  1.00777e-06
 Reference value :  1.00888e-06
 Reference value :  1.00997e-06
 Reference value :  1.01100e-06
 Reference value :  1.01243e-06
 Reference value :  1.01413e-06
 Reference value :  1.01684e-06
 Reference value :  1.01885e-06
 Reference value :  1.02101e-06
 Reference value :  1.02262e-06
 Reference value :  1.02414e-06
 Reference value :  1.02558e-06
 Reference value :  1.02714e-06
 Reference value :  1.02887e-06
 Reference value :  1.03113e-06
 Reference value :  1.03350e-06
 Reference value :  1.03815e-06
 Reference value :  1.04458e-06
 Reference value :  1.05583e-06
 Reference value :  1.07396e-06
 Reference value :  1.09985e-06
 Reference value :  1.13933e-06
 Reference value :  1.19466e-06
 Reference value :  1.24326e-06
 Reference value :  1.25010e-06
 Reference value :  1.25011e-06
 Reference value :  1.25013e-06
 Reference value :  1.25017e-06
 Reference value :  1.25020e-06
 Reference value :  1.25020e-06
 Reference value :  1.25020e-06
 Reference value :  1.25021e-06
 Reference value :  1.25021e-06
 Reference value :  1.25022e-06
 Reference value :  1.25025e-06
 Reference value :  1.25030e-06
 Reference value :  1.25039e-06
 Reference value :  1.25059e-06
 Reference value :  1.25094e-06
 Reference value :  1.25136e-06
 Reference value :  1.25188e-06
 Reference value :  1.25249e-06
 Reference value :  1.25326e-06
 Reference value :  1.25414e-06
 Reference value :  1.25526e-06
 Reference value :  1.25621e-06
 Reference value :  1.25718e-06
 Reference value :  1.25828e-06
 Reference value :  1.25984e-06
 Reference value :  1.26146e-06
 Reference value :  1.26385e-06
 Reference value :  1.26701e-06
 Reference value :  1.27127e-06
 Reference value :  1.27531e-06
 Reference value :  1.27877e-06
 Reference value :  1.28350e-06
 Reference value :  1.29121e-06
 Reference value :  1.30663e-06
 Reference value :  1.33748e-06
 Reference value :  1.39800e-06
 Reference value :  1.50000e-06
 Reference value :  1.50001e-06
 Reference value :  1.50003e-06
 Reference value :  1.50007e-06
 Reference value :  1.50010e-06
 Reference value :  1.50010e-06
 Reference value :  1.50011e-06
 Reference value :  1.50013e-06
 Reference value :  1.50016e-06
 Reference value :  1.50023e-06
 Reference value :  1.50036e-06
 Reference value :  1.50053e-06
 Reference value :  1.50087e-06
 Reference value :  1.50144e-06
 Reference value :  1.50221e-06
 Reference value :  1.50284e-06
 Reference value :  1.50351e-06
 Reference value :  1.50420e-06
 Reference value :  1.50516e-06
 Reference value :  1.50613e-06
 Reference value :  1.50708e-06
 Reference value :  1.50858e-06
 Reference value :  1.50994e-06
 Reference value :  1.51131e-06
 Reference value :  1.51286e-06
 Reference value :  1.51465e-06
 Reference value :  1.51632e-06
 Reference value :  1.51821e-06
 Reference value :  1.52055e-06
 Reference value :  1.52395e-06
 Reference value :  1.52962e-06
 Reference value :  1.53913e-06
 Reference value :  1.55684e-06
 Reference value :  1.58920e-06
 Reference value :  1.65009e-06
 Reference value :  1.75010e-06
 Reference value :  1.75011e-06
 Reference value :  1.75013e-06
 Reference value :  1.75017e-06
 Reference value :  1.75020e-06
 Reference value :  1.75020e-06
 Reference value :  1.75020e-06
 Reference value :  1.75021e-06
 Reference value :  1.75021e-06
 Reference value :  1.75022e-06
 Reference value :  1.75025e-06
 Reference value :  1.75030e-06
 Reference value :  1.75039e-06
 Reference value :  1.75059e-06
 Reference value :  1.75094e-06
 Reference value :  1.75136e-06
 Reference value :  1.75188e-06
 Reference value :  1.75249e-06
 Reference value :  1.75326e-06
 Reference value :  1.75413e-06
 Reference value :  1.75531e-06
 Reference value :  1.75623e-06
 Reference value :  1.75720e-06
 Reference value :  1.75823e-06
 Reference value :  1.75934e-06
 Reference value :  1.76057e-06
 Reference value :  1.76184e-06
 Reference value :  1.76324e-06
 Reference value :  1.76537e-06
 Reference value :  1.76770e-06
 Reference value :  1.77129e-06
 Reference value :  1.77696e-06
 Reference value :  1.78830e-06
 Reference value :  1.81098e-06
 Reference value :  1.85634e-06
 Reference value :  1.94706e-06
 Reference value :  2.00000e-06
 Reference value :  2.00001e-06
 Reference value :  2.00003e-06
 Reference value :  2.00007e-06
 Reference value :  2.00010e-06
 Reference value :  2.00010e-06
 Reference value :  2.00011e-06
 Reference value :  2.00013e-06
 Reference value :  2.00016e-06
 Reference value :  2.00023e-06
 Reference value :  2.00036e-06
 Reference value :  2.00053e-06
 Reference value :  2.00087e-06
 Reference value :  2.00144e-06
 Reference value :  2.00221e-06
 Reference value :  2.00288e-06
 Reference value :  2.00356e-06
 Reference value :  2.00427e-06
 Reference value :  2.00514e-06
 Reference value :  2.00590e-06
 Reference value :  2.00673e-06
 Reference value :  2.00781e-06
 Reference value :  2.00879e-06
 Reference value :  2.00973e-06
 Reference value :  2.01077e-06
 Reference value :  2.01213e-06
 Reference value :  2.01366e-06
 Reference value :  2.01583e-06
 Reference value :  2.01736e-06
 Reference value :  2.01906e-06
 Reference value :  2.02082e-06
 Reference value :  2.02217e-06
 Reference value :  2.02347e-06
 Reference value :  2.02487e-06
 Reference value :  2.02632e-06
 Reference value :  2.02800e-06
 Reference value :  2.02970e-06
 Reference value :  2.03254e-06
 Reference value :  2.03517e-06
 Reference value :  2.04041e-06
 Reference value :  2.04989e-06
 Reference value :  2.06391e-06
 Reference value :  2.07704e-06
 Reference value :  2.08934e-06
 Reference value :  2.09893e-06
 Reference value :  2.10369e-06
 Reference value :  2.10762e-06
 Reference value :  2.11196e-06
 Reference value :  2.11960e-06
 Reference value :  2.12680e-06
 Reference value :  2.13840e-06
 Reference value :  2.15279e-06
 Reference value :  2.17231e-06
 Reference value :  2.20032e-06
 Reference value :  2.23768e-06
 Reference value :  2.25010e-06
 Reference value :  2.25011e-06
 Reference value :  2.25013e-06
 Reference value :  2.25017e-06
 Reference value :  2.25020e-06
 Reference value :  2.25020e-06
 Reference value :  2.25020e-06
 Reference value :  2.25021e-06
 Reference value :  2.25021e-06
 Reference value :  2.25022e-06
 Reference value :  2.25025e-06
 Reference value :  2.25030e-06
 Reference value :  2.25039e-06
 Reference value :  2.25059e-06
 Reference value :  2.25094e-06
 Reference value :  2.25136e-06
 Reference value :  2.25188e-06
 Reference value :  2.25249e-06
 Reference value :  2.25325e-06
 Reference value :  2.25413e-06
 Reference value :  2.25532e-06
 Reference value :  2.25622e-06
 Reference value :  2.25718e-06
 Reference value :  2.25826e-06
 Reference value :  2.25981e-06
 Reference value :  2.26128e-06
 Reference value :  2.26378e-06
 Reference value :  2.26679e-06
 Reference value :  2.27230e-06
 Reference value :  2.28333e-06
 Reference value :  2.30265e-06
 Reference value :  2.34130e-06
 Reference value :  2.41367e-06
 Reference value :  2.50000e-06
 Reference value :  2.50001e-06
 Reference value :  2.50003e-06
 Reference value :  2.50007e-06
 Reference value :  2.50010e-06
 Reference value :  2.50010e-06
 Reference value :  2.50011e-06
 Reference value :  2.50013e-06
 Reference value :  2.50016e-06
 Reference value :  2.50023e-06
 Reference value :  2.50036e-06
 Reference value :  2.50053e-06
 Reference value :  2.50087e-06
 Reference value :  2.50145e-06
 Reference value :  2.50221e-06
 Reference value :  2.50288e-06
 Reference value :  2.50356e-06
 Reference value :  2.50426e-06
 Reference value :  2.50524e-06
 Reference value :  2.50619e-06
 Reference value :  2.50717e-06
 Reference value :  2.50861e-06
 Reference value :  2.50999e-06
 Reference value :  2.51128e-06
 Reference value :  2.51267e-06
 Reference value :  2.51419e-06
 Reference value :  2.51586e-06
 Reference value :  2.51743e-06
 Reference value :  2.51961e-06
 Reference value :  2.52190e-06
 Reference value :  2.52606e-06
 Reference value :  2.53231e-06
 Reference value :  2.54324e-06
 Reference value :  2.56370e-06
 Reference value :  2.59944e-06
 Reference value :  2.66785e-06
 Reference value :  2.75010e-06
 Reference value :  2.75011e-06
 Reference value :  2.75013e-06
 Reference value :  2.75017e-06
 Reference value :  2.75020e-06
 Reference value :  2.75020e-06
 Reference value :  2.75020e-06
 Reference value :  2.75021e-06
 Reference value :  2.75021e-06
 Reference value :  2.75022e-06
 Reference value :  2.75025e-06
 Reference value :  2.75029e-06
 Reference value :  2.75039e-06
 Reference value :  2.75058e-06
 Reference value :  2.75092e-06
 Reference value :  2.75134e-06
 Reference value :  2.75187e-06
 Reference value :  2.75248e-06
 Reference value :  2.75323e-06
 Reference value :  2.75411e-06
 Reference value :  2.75529e-06
 Reference value :  2.75619e-06
 Reference value :  2.75714e-06
 Reference value :  2.75818e-06
 Reference value :  2.75930e-06
 Reference value :  2.76052e-06
 Reference value :  2.76295e-06
 Reference value :  2.76557e-06
 Reference value :  2.77019e-06
 Reference value :  2.77851e-06
 Reference value :  2.79515e-06
 Reference value :  2.82844e-06
 Reference value :  2.89306e-06
 Reference value :  3.00000e-06
 Reference value :  3.00001e-06
 Reference value :  3.00003e-06
 Reference value :  3.00007e-06
 Reference value :  3.00010e-06
 Reference value :  3.00010e-06
 Reference value :  3.00011e-06
 Reference value :  3.00013e-06
 Reference value :  3.00016e-06
 Reference value :  3.00023e-06
 Reference value :  3.00036e-06
 Reference value :  3.00053e-06
 Reference value :  3.00087e-06
 Reference value :  3.00145e-06
 Reference value :  3.00221e-06
 Reference value :  3.00288e-06
 Reference value :  3.00356e-06
 Reference value :  3.00426e-06
 Reference value :  3.00525e-06
 Reference value :  3.00603e-06
 Reference value :  3.00685e-06
 Reference value :  3.00785e-06
 Reference value :  3.00892e-06
 Reference value :  3.01001e-06
 Reference value :  3.01102e-06
 Reference value :  3.01246e-06
 Reference value :  3.01411e-06
 Reference value :  3.01671e-06
 Reference value :  3.01868e-06
 Reference value :  3.02078e-06
 Reference value :  3.02212e-06
 Reference value :  3.02351e-06
 Reference value :  3.02483e-06
 Reference value :  3.02632e-06
 Reference value :  3.02822e-06
 Reference value :  3.02996e-06
 Reference value :  3.03278e-06
 Reference value :  3.03605e-06
 Reference value :  3.04257e-06
 Reference value :  3.05460e-06
 Reference value :  3.06912e-06
 Reference value :  3.08673e-06
 Reference value :  3.10267e-06
 Reference value :  3.11860e-06
 Reference value :  3.12979e-06
 Reference value :  3.14012e-06
 Reference value :  3.14838e-06
 Reference value :  3.15805e-06
 Reference value :  3.16493e-06
 Reference value :  3.17358e-06
 Reference value :  3.19077e-06
 Reference value :  3.20797e-06
 Reference value :  3.23938e-06
 Reference value :  3.25010e-06
 Reference value :  3.25011e-06
 Reference value :  3.25013e-06
 Reference value :  3.25017e-06
 Reference value :  3.25020e-06
 Reference value :  3.25020e-06
 Reference value :  3.25020e-06
 Reference value :  3.25021e-06
 Reference value :  3.25021e-06
 Reference value :  3.25022e-06
 Reference value :  3.25025e-06
 Reference value :  3.25030e-06
 Reference value :  3.25039e-06
 Reference value :  3.25059e-06
 Reference value :  3.25094e-06
 Reference value :  3.25136e-06
 Reference value :  3.25188e-06
 Reference value :  3.25249e-06
 Reference value :  3.25325e-06
 Reference value :  3.25413e-06
 Reference value :  3.25527e-06
 Reference value :  3.25622e-06
 Reference value :  3.25720e-06
 Reference value :  3.25830e-06
 Reference value :  3.25986e-06
 Reference value :  3.26148e-06
 Reference value :  3.26387e-06
 Reference value :  3.26706e-06
 Reference value :  3.27256e-06
 Reference value :  3.28356e-06
 Reference value :  3.30282e-06
 Reference value :  3.34044e-06
 Reference value :  3.41081e-06
 Reference value :  3.48159e-06
 Reference value :  3.50000e-06
 Reference value :  3.50001e-06
 Reference value :  3.50003e-06
 Reference value :  3.50007e-06
 Reference value :  3.50010e-06
 Reference value :  3.50010e-06
 Reference value :  3.50011e-06
 Reference value :  3.50013e-06
 Reference value :  3.50016e-06
 Reference value :  3.50023e-06
 Reference value :  3.50036e-06
 Reference value :  3.50053e-06
 Reference value :  3.50087e-06
 Reference value :  3.50144e-06
 Reference value :  3.50221e-06
 Reference value :  3.50284e-06
 Reference value :  3.50357e-06
 Reference value :  3.50424e-06
 Reference value :  3.50524e-06
 Reference value :  3.50620e-06
 Reference value :  3.50717e-06
 Reference value :  3.50854e-06
 Reference value :  3.50996e-06
 Reference value :  3.51130e-06
 Reference value :  3.51280e-06
 Reference value :  3.51433e-06
 Reference value :  3.51600e-06
 Reference value :  3.51783e-06
 Reference value :  3.51974e-06
 Reference value :  3.52251e-06
 Reference value :  3.52547e-06
 Reference value :  3.52970e-06
 Reference value :  3.53361e-06
 Reference value :  3.54141e-06
 Reference value :  3.55001e-06
 Reference value :  3.55972e-06
 Reference value :  3.56970e-06
 Reference value :  3.58202e-06
 Reference value :  3.60665e-06
 Reference value :  3.65590e-06
 Reference value :  3.72674e-06
 Reference value :  3.75010e-06
 Reference value :  3.75011e-06
 Reference value :  3.75013e-06
 Reference value :  3.75017e-06
 Reference value :  3.75020e-06
 Reference value :  3.75020e-06
 Reference value :  3.75020e-06
 Reference value :  3.75021e-06
 Reference value :  3.75021e-06
 Reference value :  3.75022e-06
 Reference value :  3.75025e-06
 Reference value :  3.75030e-06
 Reference value :  3.75039e-06
 Reference value :  3.75059e-06
 Reference value :  3.75094e-06
 Reference value :  3.75136e-06
 Reference value :  3.75188e-06
 Reference value :  3.75249e-06
 Reference value :  3.75325e-06
 Reference value :  3.75413e-06
 Reference value :  3.75532e-06
 Reference value :  3.75622e-06
 Reference value :  3.75717e-06
 Reference value :  3.75821e-06
 Reference value :  3.75934e-06
 Reference value :  3.76055e-06
 Reference value :  3.76299e-06
 Reference value :  3.76565e-06
 Reference value :  3.77031e-06
 Reference value :  3.77878e-06
 Reference value :  3.79573e-06
 Reference value :  3.82937e-06
 Reference value :  3.89448e-06
 Reference value :  4.00000e-06
 Reference value :  4.00001e-06
 Reference value :  4.00003e-06
 Reference value :  4.00007e-06
 Reference value :  4.00010e-06
 Reference value :  4.00010e-06
 Reference value :  4.00011e-06
 Reference value :  4.00013e-06
 Reference value :  4.00016e-06
 Reference value :  4.00023e-06
 Reference value :  4.00036e-06
 Reference value :  4.00053e-06
 Reference value :  4.00087e-06
 Reference value :  4.00145e-06
 Reference value :  4.00221e-06
 Reference value :  4.00288e-06
 Reference value :  4.00356e-06
 Reference value :  4.00427e-06
 Reference value :  4.00525e-06
 Reference value :  4.00603e-06
 Reference value :  4.00686e-06
 Reference value :  4.00785e-06
 Reference value :  4.00893e-06
 Reference value :  4.00993e-06
 Reference value :  4.01098e-06
 Reference value :  4.01233e-06
 Reference value :  4.01406e-06
 Reference value :  4.01669e-06
 Reference value :  4.01868e-06
 Reference value :  4.02081e-06
 Reference value :  4.02231e-06
 Reference value :  4.02380e-06
 Reference value :  4.02519e-06
 Reference value :  4.02677e-06
 Reference value :  4.02842e-06
 Reference value :  4.03063e-06
 Reference value :  4.03289e-06
 Reference value :  4.03740e-06
 Reference value :  4.04174e-06
 Reference value :  4.04708e-06
 Reference value :  4.05281e-06
 Reference value :  4.05636e-06
 Reference value :  4.06064e-06
 Reference value :  4.06491e-06
 Reference value :  4.06950e-06
 Reference value :  4.07699e-06
 Reference value :  4.08411e-06
 Reference value :  4.09070e-06
 Reference value :  4.09957e-06
 Reference value :  4.11416e-06
 Reference value :  4.13571e-06
 Reference value :  4.16900e-06
 Reference value :  4.20187e-06
 Reference value :  4.25010e-06
 Reference value :  4.25011e-06
 Reference value :  4.25013e-06
 Reference value :  4.25017e-06
 Reference value :  4.25020e-06
 Reference value :  4.25020e-06
 Reference value :  4.25020e-06
 Reference value :  4.25021e-06
 Reference value :  4.25021e-06
 Reference value :  4.25022e-06
 Reference value :  4.25025e-06
 Reference value :  4.25030e-06
 Reference value :  4.25039e-06
 Reference value :  4.25059e-06
 Reference value :  4.25093e-06
 Reference value :  4.25136e-06
 Reference value :  4.25188e-06
 Reference value :  4.25249e-06
 Reference value :  4.25325e-06
 Reference value :  4.25413e-06
 Reference value :  4.25526e-06
 Reference value :  4.25621e-06
 Reference value :  4.25719e-06
 Reference value :  4.25828e-06
 Reference value :  4.25986e-06
 Reference value :  4.26146e-06
 Reference value :  4.26392e-06
 Reference value :  4.26703e-06
 Reference value :  4.27250e-06
 Reference value :  4.28343e-06
 Reference value :  4.30245e-06
 Reference value :  4.33999e-06
 Reference value :  4.41244e-06
 Reference value :  4.50000e-06
 Reference value :  4.50001e-06
 Reference value :  4.50003e-06
 Reference value :  4.50007e-06
 Reference value :  4.50010e-06
 Reference value :  4.50010e-06
 Reference value :  4.50011e-06
 Reference value :  4.50013e-06
 Reference value :  4.50016e-06
 Reference value :  4.50023e-06
 Reference value :  4.50036e-06
 Reference value :  4.50053e-06
 Reference value :  4.50087e-06
 Reference value :  4.50145e-06
 Reference value :  4.50221e-06
 Reference value :  4.50284e-06
 Reference value :  4.50350e-06
 Reference value :  4.50419e-06
 Reference value :  4.50515e-06
 Reference value :  4.50611e-06
 Reference value :  4.50705e-06
 Reference value :  4.50854e-06
 Reference value :  4.50989e-06
 Reference value :  4.51119e-06
 Reference value :  4.51260e-06
 Reference value :  4.51393e-06
 Reference value :  4.51546e-06
 Reference value :  4.51706e-06
 Reference value :  4.51880e-06
 Reference value :  4.52230e-06
 Reference value :  4.52930e-06
 Reference value :  4.54113e-06
 Reference value :  4.56480e-06
 Reference value :  4.60922e-06
 Reference value :  4.69806e-06
 Reference value :  4.75010e-06
 Reference value :  4.75011e-06
 Reference value :  4.75013e-06
 Reference value :  4.75017e-06
 Reference value :  4.75020e-06
 Reference value :  4.75020e-06
 Reference value :  4.75020e-06
 Reference value :  4.75021e-06
 Reference value :  4.75021e-06
 Reference value :  4.75022e-06
 Reference value :  4.75025e-06
 Reference value :  4.75030e-06
 Reference value :  4.75039e-06
 Reference value :  4.75059e-06
 Reference value :  4.75093e-06
 Reference value :  4.75136e-06
 Reference value :  4.75188e-06
 Reference value :  4.75249e-06
 Reference value :  4.75325e-06
 Reference value :  4.75413e-06
 Reference value :  4.75531e-06
 Reference value :  4.75623e-06
 Reference value :  4.75720e-06
 Reference value :  4.75822e-06
 Reference value :  4.75933e-06
 Reference value :  4.76056e-06
 Reference value :  4.76184e-06
 Reference value :  4.76324e-06
 Reference value :  4.76537e-06
 Reference value :  4.76769e-06
 Reference value :  4.77130e-06
 Reference value :  4.77700e-06
 Reference value :  4.78841e-06
 Reference value :  4.81121e-06
 Reference value :  4.85645e-06
 Reference value :  4.94692e-06
 Reference value :  5.00000e-06
 Reference value :  5.00001e-06
 Reference value :  5.00003e-06
 Reference value :  5.00007e-06
 Reference value :  5.00010e-06
 Reference value :  5.00010e-06
 Reference value :  5.00011e-06
 Reference value :  5.00013e-06
 Reference value :  5.00016e-06
 Reference value :  5.00023e-06
 Reference value :  5.00036e-06
 Reference value :  5.00053e-06
 Reference value :  5.00087e-06
 Reference value :  5.00144e-06
 Reference value :  5.00221e-06
 Reference value :  5.00288e-06
 Reference value :  5.00356e-06
 Reference value :  5.00427e-06
 Reference value :  5.00524e-06
 Reference value :  5.00602e-06
 Reference value :  5.00684e-06
 Reference value :  5.00781e-06
 Reference value :  5.00872e-06
 Reference value :  5.00969e-06
 Reference value :  5.01066e-06
 Reference value :  5.01191e-06
 Reference value :  5.01360e-06
 Reference value :  5.01479e-06
 Reference value :  5.01618e-06
 Reference value :  5.01759e-06
 Reference value :  5.01923e-06
 Reference value :  5.02107e-06
 Reference value :  5.02254e-06
 Reference value :  5.02408e-06
 Reference value :  5.02554e-06
 Reference value :  5.02709e-06
 Reference value :  5.02882e-06
 Reference value :  5.03103e-06
 Reference value :  5.03336e-06
 Reference value :  5.03787e-06
 Reference value :  5.04231e-06
 Reference value :  5.04653e-06
 Reference value :  5.05136e-06
 Reference value :  5.05536e-06
 Reference value :  5.05938e-06
 Reference value :  5.06316e-06
 Reference value :  5.06669e-06
 Reference value :  5.07039e-06
 Reference value :  5.07598e-06
 Reference value :  5.08280e-06
 Reference value :  5.09397e-06
 Reference value :  5.10532e-06
 Reference value :  5.11589e-06
 Reference value :  5.13171e-06
 Reference value :  5.14383e-06
 Reference value :  5.15541e-06
 Reference value :  5.16843e-06
 Reference value :  5.17790e-06
 Reference value :  5.18856e-06
 Reference value :  5.20329e-06
 Reference value :  5.22144e-06
 Reference value :  5.25010e-06
 Reference value :  5.25011e-06
 Reference value :  5.25013e-06
 Reference value :  5.25017e-06
 Reference value :  5.25020e-06
 Reference value :  5.25020e-06
 Reference value :  5.25020e-06
 Reference value :  5.25021e-06
 Reference value :  5.25021e-06
 Reference value :  5.25022e-06
 Reference value :  5.25025e-06
 Reference value :  5.25030e-06
 Reference value :  5.25039e-06
 Reference value :  5.25059e-06
 Reference value :  5.25094e-06
 Reference value :  5.25136e-06
 Reference value :  5.25188e-06
 Reference value :  5.25249e-06
 Reference value :  5.25326e-06
 Reference value :  5.25413e-06
 Reference value :  5.25527e-06
 Reference value :  5.25622e-06
 Reference value :  5.25720e-06
 Reference value :  5.25828e-06
 Reference value :  5.25985e-06
 Reference value :  5.26144e-06
 Reference value :  5.26385e-06
 Reference value :  5.26699e-06
 Reference value :  5.27249e-06
 Reference value :  5.28348e-06
 Reference value :  5.30251e-06
 Reference value :  5.33997e-06
 Reference value :  5.39121e-06
 Reference value :  5.45580e-06
 Reference value :  5.50000e-06
 Reference value :  5.50001e-06
 Reference value :  5.50003e-06
 Reference value :  5.50007e-06
 Reference value :  5.50010e-06
 Reference value :  5.50010e-06
 Reference value :  5.50011e-06
 Reference value :  5.50013e-06
 Reference value :  5.50016e-06
 Reference value :  5.50023e-06
 Reference value :  5.50036e-06
 Reference value :  5.50053e-06
 Reference value :  5.50087e-06
 Reference value :  5.50144e-06
 Reference value :  5.50221e-06
 Reference value :  5.50284e-06
 Reference value :  5.50351e-06
 Reference value :  5.50420e-06
 Reference value :  5.50516e-06
 Reference value :  5.50613e-06
 Reference value :  5.50706e-06
 Reference value :  5.50856e-06
 Reference value :  5.50992e-06
 Reference value :  5.51121e-06
 Reference value :  5.51258e-06
 Reference value :  5.51385e-06
 Reference value :  5.51534e-06
 Reference value :  5.51685e-06
 Reference value :  5.51855e-06
 Reference value :  5.52195e-06
 Reference value :  5.52875e-06
 Reference value :  5.54042e-06
 Reference value :  5.56376e-06
 Reference value :  5.60792e-06
 Reference value :  5.69624e-06
 Reference value :  5.75010e-06
 Reference value :  5.75011e-06
 Reference value :  5.75013e-06
 Reference value :  5.75017e-06
 Reference value :  5.75020e-06
 Reference value :  5.75020e-06
 Reference value :  5.75020e-06
 Reference value :  5.75021e-06
 Reference value :  5.75021e-06
 Reference value :  5.75022e-06
 Reference value :  5.75025e-06
 Reference value :  5.75030e-06
 Reference value :  5.75039e-06
 Reference value :  5.75059e-06
 Reference value :  5.75094e-06
 Reference value :  5.75136e-06
 Reference value :  5.75188e-06
 Reference value :  5.75249e-06
 Reference value :  5.75326e-06
 Reference value :  5.75413e-06
 Reference value :  5.75531e-06
 Reference value :  5.75623e-06
 Reference value :  5.75720e-06
 Reference value :  5.75823e-06
 Reference value :  5.75934e-06
 Reference value :  5.76057e-06
 Reference value :  5.76185e-06
 Reference value :  5.76325e-06
 Reference value :  5.76538e-06
 Reference value :  5.76770e-06
 Reference value :  5.77133e-06
 Reference value :  5.77704e-06
 Reference value :  5.78848e-06
 Reference value :  5.81135e-06
 Reference value :  5.85693e-06
 Reference value :  5.94808e-06
 Reference value :  6.00000e-06
 Reference value :  6.00001e-06
 Reference value :  6.00003e-06
 Reference value :  6.00007e-06
 Reference value :  6.00010e-06
 Reference value :  6.00010e-06
 Reference value :  6.00011e-06
 Reference value :  6.00013e-06
 Reference value :  6.00016e-06
 Reference value :  6.00023e-06
 Reference value :  6.00036e-06
 Reference value :  6.00053e-06
 Reference value :  6.00087e-06
 Reference value :  6.00144e-06
 Reference value :  6.00221e-06
 Reference value :  6.00288e-06
 Reference value :  6.00356e-06
 Reference value :  6.00427e-06
 Reference value :  6.00514e-06
 Reference value :  6.00590e-06
 Reference value :  6.00673e-06
 Reference value :  6.00781e-06
 Reference value :  6.00879e-06
 Reference value :  6.00970e-06
 Reference value :  6.01079e-06
 Reference value :  6.01200e-06
 Reference value :  6.01389e-06
 Reference value :  6.01525e-06
 Reference value :  6.01673e-06
 Reference value :  6.01812e-06
 Reference value :  6.01974e-06
 Reference value :  6.02117e-06
 Reference value :  6.02235e-06
 Reference value :  6.02360e-06
 Reference value :  6.02484e-06
 Reference value :  6.02615e-06
 Reference value :  6.02786e-06
 Reference value :  6.02948e-06
 Reference value :  6.03220e-06
 Reference value :  6.03476e-06
 Reference value :  6.03885e-06
 Reference value :  6.04307e-06
 Reference value :  6.04726e-06
 Reference value :  6.05181e-06
 Reference value :  6.05797e-06
 Reference value :  6.06266e-06
 Reference value :  6.06792e-06
 Reference value :  6.07371e-06
 Reference value :  6.08010e-06
 Reference value :  6.09289e-06
 Reference value :  6.11287e-06
 Reference value :  6.14114e-06
 Reference value :  6.16212e-06
 Reference value :  6.18207e-06
 Reference value :  6.21240e-06
 Reference value :  6.23685e-06
 Reference value :  6.25010e-06
 Reference value :  6.25011e-06
 Reference value :  6.25013e-06
 Reference value :  6.25017e-06
 Reference value :  6.25020e-06
 Reference value :  6.25020e-06
 Reference value :  6.25020e-06
 Reference value :  6.25021e-06
 Reference value :  6.25021e-06
 Reference value :  6.25022e-06
 Reference value :  6.25025e-06
 Reference value :  6.25029e-06
 Reference value :  6.25039e-06
 Reference value :  6.25058e-06
 Reference value :  6.25092e-06
 Reference value :  6.25135e-06
 Reference value :  6.25187e-06
 Reference value :  6.25248e-06
 Reference value :  6.25324e-06
 Reference value :  6.25411e-06
 Reference value :  6.25525e-06
 Reference value :  6.25619e-06
 Reference value :  6.25717e-06
 Reference value :  6.25824e-06
 Reference value :  6.25981e-06
 Reference value :  6.26137e-06
 Reference value :  6.26381e-06
 Reference value :  6.26688e-06
 Reference value :  6.27230e-06
 Reference value :  6.28316e-06
 Reference value :  6.30212e-06
 Reference value :  6.33967e-06
 Reference value :  6.41115e-06
 Reference value :  6.50000e-06
 Reference value :  6.50001e-06
 Reference value :  6.50003e-06
 Reference value :  6.50007e-06
 Reference value :  6.50010e-06
 Reference value :  6.50010e-06
 Reference value :  6.50011e-06
 Reference value :  6.50013e-06
 Reference value :  6.50016e-06
 Reference value :  6.50023e-06
 Reference value :  6.50036e-06
 Reference value :  6.50053e-06
 Reference value :  6.50087e-06
 Reference value :  6.50145e-06
 Reference value :  6.50221e-06
 Reference value :  6.50284e-06
 Reference value :  6.50350e-06
 Reference value :  6.50419e-06
 Reference value :  6.50515e-06
 Reference value :  6.50611e-06
 Reference value :  6.50705e-06
 Reference value :  6.50852e-06
 Reference value :  6.50989e-06
 Reference value :  6.51126e-06
 Reference value :  6.51281e-06
 Reference value :  6.51420e-06
 Reference value :  6.51572e-06
 Reference value :  6.51723e-06
 Reference value :  6.51901e-06
 Reference value :  6.52257e-06
 Reference value :  6.52843e-06
 Reference value :  6.54014e-06
 Reference value :  6.56225e-06
 Reference value :  6.60321e-06
 Reference value :  6.68513e-06
 Reference value :  6.75010e-06
 Reference value :  6.75011e-06
 Reference value :  6.75013e-06
 Reference value :  6.75017e-06
 Reference value :  6.75020e-06
 Reference value :  6.75020e-06
 Reference value :  6.75020e-06
 Reference value :  6.75021e-06
 Reference value :  6.75021e-06
 Reference value :  6.75022e-06
 Reference value :  6.75025e-06
 Reference value :  6.75030e-06
 Reference value :  6.75039e-06
 Reference value :  6.75059e-06
 Reference value :  6.75094e-06
 Reference value :  6.75136e-06
 Reference value :  6.75188e-06
 Reference value :  6.75249e-06
 Reference value :  6.75326e-06
 Reference value :  6.75413e-06
 Reference value :  6.75531e-06
 Reference value :  6.75623e-06
 Reference value :  6.75720e-06
 Reference value :  6.75823e-06
 Reference value :  6.75934e-06
 Reference value :  6.76058e-06
 Reference value :  6.76186e-06
 Reference value :  6.76326e-06
 Reference value :  6.76539e-06
 Reference value :  6.76771e-06
 Reference value :  6.77136e-06
 Reference value :  6.77711e-06
 Reference value :  6.78862e-06
 Reference value :  6.81162e-06
 Reference value :  6.85652e-06
 Reference value :  6.94632e-06
 Reference value :  7.00000e-06
 Reference value :  7.00001e-06
 Reference value :  7.00003e-06
 Reference value :  7.00007e-06
 Reference value :  7.00010e-06
 Reference value :  7.00010e-06
 Reference value :  7.00011e-06
 Reference value :  7.00013e-06
 Reference value :  7.00016e-06
 Reference value :  7.00023e-06
 Reference value :  7.00036e-06
 Reference value :  7.00053e-06
 Reference value :  7.00087e-06
 Reference value :  7.00144e-06
 Reference value :  7.00221e-06
 Reference value :  7.00288e-06
 Reference value :  7.00356e-06
 Reference value :  7.00427e-06
 Reference value :  7.00513e-06
 Reference value :  7.00590e-06
 Reference value :  7.00672e-06
 Reference value :  7.00780e-06
 Reference value :  7.00878e-06
 Reference value :  7.00974e-06
 Reference value :  7.01079e-06
 Reference value :  7.01204e-06
 Reference value :  7.01385e-06
 Reference value :  7.01516e-06
 Reference value :  7.01664e-06
 Reference value :  7.01813e-06
 Reference value :  7.01977e-06
 Reference value :  7.02133e-06
 Reference value :  7.02243e-06
 Reference value :  7.02356e-06
 Reference value :  7.02471e-06
 Reference value :  7.02602e-06
 Reference value :  7.02739e-06
 Reference value :  7.02883e-06
 Reference value :  7.03088e-06
 Reference value :  7.03309e-06
 Reference value :  7.03722e-06
 Reference value :  7.04197e-06
 Reference value :  7.04739e-06
 Reference value :  7.05133e-06
 Reference value :  7.05564e-06
 Reference value :  7.06068e-06
 Reference value :  7.06618e-06
 Reference value :  7.07717e-06
 Reference value :  7.09260e-06
 Reference value :  7.10435e-06
 Reference value :  7.12074e-06
 Reference value :  7.14679e-06
 Reference value :  7.19887e-06
 Reference value :  7.25010e-06
 Reference value :  7.25011e-06
 Reference value :  7.25013e-06
 Reference value :  7.25017e-06
 Reference value :  7.25020e-06
 Reference value :  7.25020e-06
 Reference value :  7.25020e-06
 Reference value :  7.25021e-06
 Reference value :  7.25021e-06
 Reference value :  7.25022e-06
 Reference value :  7.25025e-06
 Reference value :  7.25030e-06
 Reference value :  7.25039e-06
 Reference value :  7.25059e-06
 Reference value :  7.25094e-06
 Reference value :  7.25136e-06
 Reference value :  7.25188e-06
 Reference value :  7.25249e-06
 Reference value :  7.25326e-06
 Reference value :  7.25414e-06
 Reference value :  7.25532e-06
 Reference value :  7.25625e-06
 Reference value :  7.25722e-06
 Reference value :  7.25830e-06
 Reference value :  7.25986e-06
 Reference value :  7.26139e-06
 Reference value :  7.26384e-06
 Reference value :  7.26695e-06
 Reference value :  7.27254e-06
 Reference value :  7.28373e-06
 Reference value :  7.30281e-06
 Reference value :  7.34085e-06
 Reference value :  7.41056e-06
 Reference value :  7.50000e-06
 Reference value :  7.50001e-06
 Reference value :  7.50003e-06
 Reference value :  7.50007e-06
 Reference value :  7.50010e-06
 Reference value :  7.50010e-06
 Reference value :  7.50011e-06
 Reference value :  7.50013e-06
 Reference value :  7.50016e-06
 Reference value :  7.50023e-06
 Reference value :  7.50036e-06
 Reference value :  7.50053e-06
 Reference value :  7.50087e-06
 Reference value :  7.50150e-06
 Reference value :  7.50218e-06
 Reference value :  7.50280e-06
 Reference value :  7.50345e-06
 Reference value :  7.50413e-06
 Reference value :  7.50512e-06
 Reference value :  7.50601e-06
 Reference value :  7.50701e-06
 Reference value :  7.50826e-06
 Reference value :  7.50973e-06
 Reference value :  7.51115e-06
 Reference value :  7.51283e-06
 Reference value :  7.51438e-06
 Reference value :  7.51607e-06
 Reference value :  7.51780e-06
 Reference value :  7.51969e-06
 Reference value :  7.52348e-06
 Reference value :  7.52974e-06
 Reference value :  7.54044e-06
 Reference value :  7.56148e-06
 Reference value :  7.60000e-06
 Reference value :  7.67186e-06
 Reference value :  7.75010e-06
 Reference value :  7.75011e-06
 Reference value :  7.75013e-06
 Reference value :  7.75017e-06
 Reference value :  7.75020e-06
 Reference value :  7.75020e-06
 Reference value :  7.75020e-06
 Reference value :  7.75021e-06
 Reference value :  7.75021e-06
 Reference value :  7.75022e-06
 Reference value :  7.75025e-06
 Reference value :  7.75030e-06
 Reference value :  7.75039e-06
 Reference value :  7.75059e-06
 Reference value :  7.75094e-06
 Reference value :  7.75136e-06
 Reference value :  7.75188e-06
 Reference value :  7.75249e-06
 Reference value :  7.75326e-06
 Reference value :  7.75414e-06
 Reference value :  7.75531e-06
 Reference value :  7.75626e-06
 Reference value :  7.75725e-06
 Reference value :  7.75827e-06
 Reference value :  7.75940e-06
 Reference value :  7.76065e-06
 Reference value :  7.76305e-06
 Reference value :  7.76586e-06
 Reference value :  7.77064e-06
 Reference value :  7.77980e-06
 Reference value :  7.79800e-06
 Reference value :  7.83134e-06
 Reference value :  7.89784e-06
 Reference value :  8.00000e-06
 Reference value :  8.00001e-06
 Reference value :  8.00003e-06
 Reference value :  8.00007e-06
 Reference value :  8.00010e-06
 Reference value :  8.00010e-06
 Reference value :  8.00011e-06
 Reference value :  8.00013e-06
 Reference value :  8.00016e-06
 Reference value :  8.00023e-06
 Reference value :  8.00036e-06
 Reference value :  8.00053e-06
 Reference value :  8.00087e-06
 Reference value :  8.00150e-06
 Reference value :  8.00218e-06
 Reference value :  8.00280e-06
 Reference value :  8.00345e-06
 Reference value :  8.00414e-06
 Reference value :  8.00499e-06
 Reference value :  8.00588e-06
 Reference value :  8.00669e-06
 Reference value :  8.00773e-06
 Reference value :  8.00871e-06
 Reference value :  8.00974e-06
 Reference value :  8.01072e-06
 Reference value :  8.01204e-06
 Reference value :  8.01371e-06
 Reference value :  8.01602e-06
 Reference value :  8.01872e-06
 Reference value :  8.02109e-06
 Reference value :  8.02353e-06
 Reference value :  8.02726e-06
 Reference value :  8.03094e-06
 Reference value :  8.03735e-06
 Reference value :  8.04600e-06
 Reference value :  8.05945e-06
 Reference value :  8.08154e-06
 Reference value :  8.11900e-06
 Reference value :  8.18103e-06
 Reference value :  8.25010e-06
 Reference value :  8.25011e-06
 Reference value :  8.25013e-06
 Reference value :  8.25017e-06
 Reference value :  8.25020e-06
 Reference value :  8.25020e-06
 Reference value :  8.25020e-06
 Reference value :  8.25021e-06
 Reference value :  8.25021e-06
 Reference value :  8.25022e-06
 Reference value :  8.25025e-06
 Reference value :  8.25030e-06
 Reference value :  8.25039e-06
 Reference value :  8.25059e-06
 Reference value :  8.25098e-06
 Reference value :  8.25139e-06
 Reference value :  8.25189e-06
 Reference value :  8.25250e-06
 Reference value :  8.25330e-06
 Reference value :  8.25418e-06
 Reference value :  8.25526e-06
 Reference value :  8.25645e-06
 Reference value :  8.25784e-06
 Reference value :  8.25942e-06
 Reference value :  8.26126e-06
 Reference value :  8.26401e-06
 Reference value :  8.26675e-06
 Reference value :  8.27191e-06
 Reference value :  8.28224e-06
 Reference value :  8.29901e-06
 Reference value :  8.33245e-06
 Reference value :  8.39191e-06
 Reference value :  8.50000e-06
 Reference value :  8.50000e-06
 Reference value :  8.50000e-06
 Reference value :  8.50000e-06
 Reference value :  8.50000e-06
 Reference value :  8.50000e-06
 Reference value :  8.50000e-06
 Reference value :  8.50000e-06
 Reference value :  8.50000e-06
 Reference value :  8.50001e-06
 Reference value :  8.50001e-06
 Reference value :  8.50002e-06
 Reference value :  8.50004e-06
 Reference value :  8.50008e-06
 Reference value :  8.50010e-06
 Reference value :  8.50010e-06
 Reference value :  8.50011e-06
 Reference value :  8.50012e-06
 Reference value :  8.50014e-06
 Reference value :  8.50018e-06
 Reference value :  8.50026e-06
 Reference value :  8.50043e-06
 Reference value :  8.50077e-06
 Reference value :  8.50124e-06
 Reference value :  8.50211e-06
 Reference value :  8.50295e-06
 Reference value :  8.50360e-06
 Reference value :  8.50441e-06
 Reference value :  8.50523e-06
 Reference value :  8.50622e-06
 Reference value :  8.50737e-06
 Reference value :  8.50865e-06
 Reference value :  8.51072e-06
 Reference value :  8.51234e-06
 Reference value :  8.51406e-06
 Reference value :  8.51588e-06
 Reference value :  8.51780e-06
 Reference value :  8.52005e-06
 Reference value :  8.52272e-06
 Reference value :  8.52806e-06
 Reference value :  8.53287e-06
 Reference value :  8.53660e-06
 Reference value :  8.53997e-06
 Reference value :  8.54279e-06
 Reference value :  8.54539e-06
 Reference value :  8.54755e-06
 Reference value :  8.54967e-06
 Reference value :  8.55157e-06
 Reference value :  8.55370e-06
 Reference value :  8.55651e-06
 Reference value :  8.55928e-06
 Reference value :  8.56222e-06
 Reference value :  8.56778e-06
 Reference value :  8.57637e-06
 Reference value :  8.59035e-06
 Reference value :  8.61595e-06
 Reference value :  8.63048e-06
 Reference value :  8.64731e-06
 Reference value :  8.66609e-06
 Reference value :  8.69829e-06
 Reference value :  8.73297e-06
 Reference value :  8.75010e-06
 Reference value :  8.75011e-06
 Reference value :  8.75013e-06
 Reference value :  8.75017e-06
 Reference value :  8.75020e-06
 Reference value :  8.75020e-06
 Reference value :  8.75020e-06
 Reference value :  8.75021e-06
 Reference value :  8.75021e-06
 Reference value :  8.75022e-06
 Reference value :  8.75025e-06
 Reference value :  8.75030e-06
 Reference value :  8.75039e-06
 Reference value :  8.75059e-06
 Reference value :  8.75098e-06
 Reference value :  8.75138e-06
 Reference value :  8.75191e-06
 Reference value :  8.75252e-06
 Reference value :  8.75332e-06
 Reference value :  8.75421e-06
 Reference value :  8.75542e-06
 Reference value :  8.75639e-06
 Reference value :  8.75740e-06
 Reference value :  8.75850e-06
 Reference value :  8.76008e-06
 Reference value :  8.76171e-06
 Reference value :  8.76409e-06
 Reference value :  8.76756e-06
 Reference value :  8.77389e-06
 Reference value :  8.78609e-06
 Reference value :  8.80656e-06
 Reference value :  8.84659e-06
 Reference value :  8.91781e-06
 Reference value :  9.00000e-06
 Reference value :  9.00001e-06
 Reference value :  9.00003e-06
 Reference value :  9.00007e-06
 Reference value :  9.00010e-06
 Reference value :  9.00010e-06
 Reference value :  9.00011e-06
 Reference value :  9.00013e-06
 Reference value :  9.00016e-06
 Reference value :  9.00023e-06
 Reference value :  9.00036e-06
 Reference value :  9.00054e-06
 Reference value :  9.00089e-06
 Reference value :  9.00151e-06
 Reference value :  9.00220e-06
 Reference value :  9.00282e-06
 Reference value :  9.00350e-06
 Reference value :  9.00421e-06
 Reference value :  9.00519e-06
 Reference value :  9.00613e-06
 Reference value :  9.00711e-06
 Reference value :  9.00846e-06
 Reference value :  9.00985e-06
 Reference value :  9.01176e-06
 Reference value :  9.01407e-06
 Reference value :  9.01592e-06
 Reference value :  9.01789e-06
 Reference value :  9.01994e-06
 Reference value :  9.02223e-06
 Reference value :  9.02479e-06
 Reference value :  9.02750e-06
 Reference value :  9.03247e-06
 Reference value :  9.04089e-06
 Reference value :  9.05042e-06
 Reference value :  9.06949e-06
 Reference value :  9.10762e-06
 Reference value :  9.17120e-06
 Reference value :  9.25010e-06
 Reference value :  9.25011e-06
 Reference value :  9.25013e-06
 Reference value :  9.25017e-06
 Reference value :  9.25020e-06
 Reference value :  9.25020e-06
 Reference value :  9.25020e-06
 Reference value :  9.25021e-06
 Reference value :  9.25021e-06
 Reference value :  9.25022e-06
 Reference value :  9.25025e-06
 Reference value :  9.25030e-06
 Reference value :  9.25039e-06
 Reference value :  9.25059e-06
 Reference value :  9.25098e-06
 Reference value :  9.25139e-06
 Reference value :  9.25191e-06
 Reference value :  9.25252e-06
 Reference value :  9.25332e-06
 Reference value :  9.25422e-06
 Reference value :  9.25541e-06
 Reference value :  9.25650e-06
 Reference value :  9.25751e-06
 Reference value :  9.25859e-06
 Reference value :  9.25983e-06
 Reference value :  9.26116e-06
 Reference value :  9.26359e-06
 Reference value :  9.26677e-06
 Reference value :  9.27237e-06
 Reference value :  9.28357e-06
 Reference value :  9.30272e-06
 Reference value :  9.34005e-06
 Reference value :  9.40841e-06
 Reference value :  9.50000e-06
 Reference value :  9.50001e-06
 Reference value :  9.50003e-06
 Reference value :  9.50007e-06
 Reference value :  9.50010e-06
 Reference value :  9.50010e-06
 Reference value :  9.50011e-06
 Reference value :  9.50013e-06
 Reference value :  9.50016e-06
 Reference value :  9.50023e-06
 Reference value :  9.50036e-06
 Reference value :  9.50054e-06
 Reference value :  9.50089e-06
 Reference value :  9.50151e-06
 Reference value :  9.50220e-06
 Reference value :  9.50282e-06
 Reference value :  9.50346e-06
 Reference value :  9.50415e-06
 Reference value :  9.50499e-06
 Reference value :  9.50587e-06
 Reference value :  9.50671e-06
 Reference value :  9.50777e-06
 Reference value :  9.50887e-06
 Reference value :  9.50996e-06
 Reference value :  9.51099e-06
 Reference value :  9.51243e-06
 Reference value :  9.51411e-06
 Reference value :  9.51683e-06
 Reference value :  9.51884e-06
 Reference value :  9.52100e-06
 Reference value :  9.52260e-06
 Reference value :  9.52413e-06
 Reference value :  9.52557e-06
 Reference value :  9.52713e-06
 Reference value :  9.52883e-06
 Reference value :  9.53109e-06
 Reference value :  9.53342e-06
 Reference value :  9.53797e-06
 Reference value :  9.54427e-06
 Reference value :  9.55516e-06
 Reference value :  9.57330e-06
 Reference value :  9.59861e-06
 Reference value :  9.63780e-06
 Reference value :  9.69449e-06
 Reference value :  9.74348e-06
 Reference value :  9.75010e-06
 Reference value :  9.75011e-06
 Reference value :  9.75013e-06
 Reference value :  9.75017e-06
 Reference value :  9.75020e-06
 Reference value :  9.75020e-06
 Reference value :  9.75020e-06
 Reference value :  9.75021e-06
 Reference value :  9.75021e-06
 Reference value :  9.75022e-06
 Reference value :  9.75025e-06
 Reference value :  9.75030e-06
 Reference value :  9.75039e-06
 Reference value :  9.75059e-06
 Reference value :  9.75094e-06
 Reference value :  9.75136e-06
 Reference value :  9.75188e-06
 Reference value :  9.75249e-06
 Reference value :  9.75326e-06
 Reference value :  9.75414e-06
 Reference value :  9.75526e-06
 Reference value :  9.75621e-06
 Reference value :  9.75718e-06
 Reference value :  9.75828e-06
 Reference value :  9.75983e-06
 Reference value :  9.76145e-06
 Reference value :  9.76385e-06
 Reference value :  9.76700e-06
 Reference value :  9.77245e-06
 Reference value :  9.77769e-06
 Reference value :  9.78230e-06
 Reference value :  9.78780e-06
 Reference value :  9.79348e-06
 Reference value :  9.80486e-06
 Reference value :  9.82761e-06
 Reference value :  9.86980e-06
 Reference value :  9.94601e-06
 Reference value :  1.00000e-05
 Reference value :  1.00000e-05
 Reference value :  1.00000e-05
 Reference value :  1.00001e-05
 Reference value :  1.00001e-05
 Reference value :  1.00001e-05
 Reference value :  1.00001e-05
 Reference value :  1.00001e-05
 Reference value :  1.00002e-05
 Reference value :  1.00002e-05
 Reference value :  1.00004e-05
 Reference value :  1.00005e-05
 Reference value :  1.00009e-05
 Reference value :  1.00014e-05
 Reference value :  1.00022e-05
 Reference value :  1.00028e-05
 Reference value :  1.00035e-05
 Reference value :  1.00042e-05
 Reference value :  1.00052e-05
 Reference value :  1.00061e-05
 Reference value :  1.00071e-05
 Reference value :  1.00086e-05
 Reference value :  1.00099e-05
 Reference value :  1.00113e-05
 Reference value :  1.00129e-05
 Reference value :  1.00146e-05
 Reference value :  1.00163e-05
 Reference value :  1.00181e-05
 Reference value :  1.00205e-05
 Reference value :  1.00237e-05
 Reference value :  1.00292e-05
 Reference value :  1.00383e-05
 Reference value :  1.00549e-05
 Reference value :  1.00854e-05
 Reference value :  1.01420e-05
 Reference value :  1.02501e-05
 Reference value :  1.02501e-05
 Reference value :  1.02501e-05
 Reference value :  1.02502e-05
 Reference value :  1.02502e-05
 Reference value :  1.02502e-05
 Reference value :  1.02502e-05
 Reference value :  1.02502e-05
 Reference value :  1.02502e-05
 Reference value :  1.02502e-05
 Reference value :  1.02502e-05
 Reference value :  1.02503e-05
 Reference value :  1.02504e-05
 Reference value :  1.02506e-05
 Reference value :  1.02509e-05
 Reference value :  1.02514e-05
 Reference value :  1.02519e-05
 Reference value :  1.02525e-05
 Reference value :  1.02533e-05
 Reference value :  1.02541e-05
 Reference value :  1.02553e-05
 Reference value :  1.02562e-05
 Reference value :  1.02572e-05
 Reference value :  1.02582e-05
 Reference value :  1.02593e-05
 Reference value :  1.02606e-05
 Reference value :  1.02618e-05
 Reference value :  1.02632e-05
 Reference value :  1.02654e-05
 Reference value :  1.02677e-05
 Reference value :  1.02713e-05
 Reference value :  1.02770e-05
 Reference value :  1.02883e-05
 Reference value :  1.03110e-05
 Reference value :  1.03563e-05
 Reference value :  1.04470e-05
 Reference value :  1.05000e-05
 Reference value :  1.05000e-05
 Reference value :  1.05000e-05
 Reference value :  1.05001e-05
 Reference value :  1.05001e-05
 Reference value :  1.05001e-05
 Reference value :  1.05001e-05
 Reference value :  1.05001e-05
 Reference value :  1.05002e-05
 Reference value :  1.05002e-05
 Reference value :  1.05004e-05
 Reference value :  1.05005e-05
 Reference value :  1.05009e-05
 Reference value :  1.05014e-05
 Reference value :  1.05022e-05
 Reference value :  1.05029e-05
 Reference value :  1.05036e-05
 Reference value :  1.05043e-05
 Reference value :  1.05051e-05
 Reference value :  1.05059e-05
 Reference value :  1.05067e-05
 Reference value :  1.05078e-05
 Reference value :  1.05088e-05
 Reference value :  1.05097e-05
 Reference value :  1.05108e-05
 Reference value :  1.05121e-05
 Reference value :  1.05137e-05
 Reference value :  1.05158e-05
 Reference value :  1.05173e-05
 Reference value :  1.05191e-05
 Reference value :  1.05208e-05
 Reference value :  1.05222e-05
 Reference value :  1.05235e-05
 Reference value :  1.05249e-05
 Reference value :  1.05263e-05
 Reference value :  1.05280e-05
 Reference value :  1.05297e-05
 Reference value :  1.05326e-05
 Reference value :  1.05352e-05
 Reference value :  1.05405e-05
 Reference value :  1.05498e-05
 Reference value :  1.05636e-05
 Reference value :  1.05766e-05
 Reference value :  1.05888e-05
 Reference value :  1.05983e-05
 Reference value :  1.06036e-05
 Reference value :  1.06076e-05
 Reference value :  1.06120e-05
 Reference value :  1.06192e-05
 Reference value :  1.06259e-05
 Reference value :  1.06361e-05
 Reference value :  1.06485e-05
 Reference value :  1.06649e-05
 Reference value :  1.06878e-05
 Reference value :  1.07178e-05
 Reference value :  1.07501e-05
 Reference value :  1.07501e-05
 Reference value :  1.07501e-05
 Reference value :  1.07502e-05
 Reference value :  1.07502e-05
 Reference value :  1.07502e-05
 Reference value :  1.07502e-05
 Reference value :  1.07502e-05
 Reference value :  1.07502e-05
 Reference value :  1.07502e-05
 Reference value :  1.07502e-05
 Reference value :  1.07503e-05
 Reference value :  1.07504e-05
 Reference value :  1.07506e-05
 Reference value :  1.07509e-05
 Reference value :  1.07514e-05
 Reference value :  1.07519e-05
 Reference value :  1.07525e-05
 Reference value :  1.07533e-05
 Reference value :  1.07541e-05
 Reference value :  1.07553e-05
 Reference value :  1.07562e-05
 Reference value :  1.07572e-05
 Reference value :  1.07583e-05
 Reference value :  1.07598e-05
 Reference value :  1.07613e-05
 Reference value :  1.07638e-05
 Reference value :  1.07668e-05
 Reference value :  1.07723e-05
 Reference value :  1.07834e-05
 Reference value :  1.08023e-05
 Reference value :  1.08401e-05
 Reference value :  1.09102e-05
 Reference value :  1.10000e-05
 Reference value :  1.10000e-05
 Reference value :  1.10000e-05
 Reference value :  1.10001e-05
 Reference value :  1.10001e-05
 Reference value :  1.10001e-05
 Reference value :  1.10001e-05
 Reference value :  1.10001e-05
 Reference value :  1.10002e-05
 Reference value :  1.10002e-05
 Reference value :  1.10004e-05
 Reference value :  1.10005e-05
 Reference value :  1.10009e-05
 Reference value :  1.10014e-05
 Reference value :  1.10022e-05
 Reference value :  1.10029e-05
 Reference value :  1.10036e-05
 Reference value :  1.10043e-05
 Reference value :  1.10052e-05
 Reference value :  1.10062e-05
 Reference value :  1.10072e-05
 Reference value :  1.10086e-05
 Reference value :  1.10100e-05
 Reference value :  1.10113e-05
 Reference value :  1.10127e-05
 Reference value :  1.10142e-05
 Reference value :  1.10159e-05
 Reference value :  1.10174e-05
 Reference value :  1.10196e-05
 Reference value :  1.10219e-05
 Reference value :  1.10260e-05
 Reference value :  1.10321e-05
 Reference value :  1.10428e-05
 Reference value :  1.10628e-05
 Reference value :  1.10977e-05
 Reference value :  1.11642e-05
 Reference value :  1.12501e-05
 Reference value :  1.12501e-05
 Reference value :  1.12501e-05
 Reference value :  1.12502e-05
 Reference value :  1.12502e-05
 Reference value :  1.12502e-05
 Reference value :  1.12502e-05
 Reference value :  1.12502e-05
 Reference value :  1.12502e-05
 Reference value :  1.12502e-05
 Reference value :  1.12502e-05
 Reference value :  1.12503e-05
 Reference value :  1.12504e-05
 Reference value :  1.12506e-05
 Reference value :  1.12509e-05
 Reference value :  1.12513e-05
 Reference value :  1.12519e-05
 Reference value :  1.12525e-05
 Reference value :  1.12532e-05
 Reference value :  1.12541e-05
 Reference value :  1.12553e-05
 Reference value :  1.12562e-05
 Reference value :  1.12571e-05
 Reference value :  1.12582e-05
 Reference value :  1.12593e-05
 Reference value :  1.12605e-05
 Reference value :  1.12629e-05
 Reference value :  1.12656e-05
 Reference value :  1.12702e-05
 Reference value :  1.12785e-05
 Reference value :  1.12951e-05
 Reference value :  1.13283e-05
 Reference value :  1.13927e-05
 Reference value :  1.15000e-05
 Reference value :  1.15000e-05
 Reference value :  1.15000e-05
 Reference value :  1.15001e-05
 Reference value :  1.15001e-05
 Reference value :  1.15001e-05
 Reference value :  1.15001e-05
 Reference value :  1.15001e-05
 Reference value :  1.15002e-05
 Reference value :  1.15002e-05
 Reference value :  1.15004e-05
 Reference value :  1.15005e-05
 Reference value :  1.15009e-05
 Reference value :  1.15014e-05
 Reference value :  1.15022e-05
 Reference value :  1.15029e-05
 Reference value :  1.15036e-05
 Reference value :  1.15043e-05
 Reference value :  1.15052e-05
 Reference value :  1.15060e-05
 Reference value :  1.15069e-05
 Reference value :  1.15078e-05
 Reference value :  1.15089e-05
 Reference value :  1.15100e-05
 Reference value :  1.15110e-05
 Reference value :  1.15125e-05
 Reference value :  1.15141e-05
 Reference value :  1.15167e-05
 Reference value :  1.15187e-05
 Reference value :  1.15208e-05
 Reference value :  1.15222e-05
 Reference value :  1.15236e-05
 Reference value :  1.15250e-05
 Reference value :  1.15265e-05
 Reference value :  1.15283e-05
 Reference value :  1.15301e-05
 Reference value :  1.15329e-05
 Reference value :  1.15367e-05
 Reference value :  1.15435e-05
 Reference value :  1.15562e-05
 Reference value :  1.15708e-05
 Reference value :  1.15872e-05
 Reference value :  1.16058e-05
 Reference value :  1.16260e-05
 Reference value :  1.16392e-05
 Reference value :  1.16518e-05
 Reference value :  1.16607e-05
 Reference value :  1.16701e-05
 Reference value :  1.16803e-05
 Reference value :  1.16906e-05
 Reference value :  1.17111e-05
 Reference value :  1.17345e-05
 Reference value :  1.17501e-05
 Reference value :  1.17501e-05
 Reference value :  1.17501e-05
 Reference value :  1.17502e-05
 Reference value :  1.17502e-05
 Reference value :  1.17502e-05
 Reference value :  1.17502e-05
 Reference value :  1.17502e-05
 Reference value :  1.17502e-05
 Reference value :  1.17502e-05
 Reference value :  1.17502e-05
 Reference value :  1.17503e-05
 Reference value :  1.17504e-05
 Reference value :  1.17506e-05
 Reference value :  1.17509e-05
 Reference value :  1.17513e-05
 Reference value :  1.17519e-05
 Reference value :  1.17525e-05
 Reference value :  1.17532e-05
 Reference value :  1.17541e-05
 Reference value :  1.17552e-05
 Reference value :  1.17562e-05
 Reference value :  1.17571e-05
 Reference value :  1.17582e-05
 Reference value :  1.17598e-05
 Reference value :  1.17614e-05
 Reference value :  1.17638e-05
 Reference value :  1.17668e-05
 Reference value :  1.17722e-05
 Reference value :  1.17830e-05
 Reference value :  1.18018e-05
 Reference value :  1.18391e-05
 Reference value :  1.19100e-05
 Reference value :  1.19695e-05
 Reference value :  1.20000e-05
 Reference value :  1.20000e-05
 Reference value :  1.20000e-05
 Reference value :  1.20001e-05
 Reference value :  1.20001e-05
 Reference value :  1.20001e-05
 Reference value :  1.20001e-05
 Reference value :  1.20001e-05
 Reference value :  1.20002e-05
 Reference value :  1.20002e-05
 Reference value :  1.20004e-05
 Reference value :  1.20005e-05
 Reference value :  1.20009e-05
 Reference value :  1.20014e-05
 Reference value :  1.20022e-05
 Reference value :  1.20029e-05
 Reference value :  1.20036e-05
 Reference value :  1.20043e-05
 Reference value :  1.20053e-05
 Reference value :  1.20062e-05
 Reference value :  1.20072e-05
 Reference value :  1.20087e-05
 Reference value :  1.20100e-05
 Reference value :  1.20113e-05
 Reference value :  1.20127e-05
 Reference value :  1.20142e-05
 Reference value :  1.20159e-05
 Reference value :  1.20177e-05
 Reference value :  1.20197e-05
 Reference value :  1.20236e-05
 Reference value :  1.20300e-05
 Reference value :  1.20428e-05
 Reference value :  1.20666e-05
 Reference value :  1.21105e-05
 Reference value :  1.21983e-05
 Reference value :  1.22501e-05
 Reference value :  1.22501e-05
 Reference value :  1.22501e-05
 Reference value :  1.22502e-05
 Reference value :  1.22502e-05
 Reference value :  1.22502e-05
 Reference value :  1.22502e-05
 Reference value :  1.22502e-05
 Reference value :  1.22502e-05
 Reference value :  1.22502e-05
 Reference value :  1.22502e-05
 Reference value :  1.22503e-05
 Reference value :  1.22504e-05
 Reference value :  1.22506e-05
 Reference value :  1.22509e-05
 Reference value :  1.22514e-05
 Reference value :  1.22519e-05
 Reference value :  1.22525e-05
 Reference value :  1.22533e-05
 Reference value :  1.22541e-05
 Reference value :  1.22553e-05
 Reference value :  1.22562e-05
 Reference value :  1.22572e-05
 Reference value :  1.22582e-05
 Reference value :  1.22593e-05
 Reference value :  1.22606e-05
 Reference value :  1.22630e-05
 Reference value :  1.22657e-05
 Reference value :  1.22704e-05
 Reference value :  1.22789e-05
 Reference value :  1.22959e-05
 Reference value :  1.23291e-05
 Reference value :  1.23947e-05
 Reference value :  1.25000e-05
 Reference value :  1.25000e-05
 Reference value :  1.25000e-05
 Reference value :  1.25001e-05
 Reference value :  1.25001e-05
 Reference value :  1.25001e-05
 Reference value :  1.25001e-05
 Reference value :  1.25001e-05
 Reference value :  1.25002e-05
 Reference value :  1.25002e-05
 Reference value :  1.25004e-05
 Reference value :  1.25005e-05
 Reference value :  1.25009e-05
 Reference value :  1.25014e-05
 Reference value :  1.25022e-05
 Reference value :  1.25029e-05
 Reference value :  1.25036e-05
 Reference value :  1.25043e-05
 Reference value :  1.25052e-05
 Reference value :  1.25060e-05
 Reference value :  1.25069e-05
 Reference value :  1.25078e-05
 Reference value :  1.25089e-05
 Reference value :  1.25099e-05
 Reference value :  1.25110e-05
 Reference value :  1.25123e-05
 Reference value :  1.25141e-05
 Reference value :  1.25167e-05
 Reference value :  1.25187e-05
 Reference value :  1.25208e-05
 Reference value :  1.25223e-05
 Reference value :  1.25238e-05
 Reference value :  1.25252e-05
 Reference value :  1.25268e-05
 Reference value :  1.25284e-05
 Reference value :  1.25306e-05
 Reference value :  1.25328e-05
 Reference value :  1.25372e-05
 Reference value :  1.25413e-05
 Reference value :  1.25465e-05
 Reference value :  1.25521e-05
 Reference value :  1.25559e-05
 Reference value :  1.25605e-05
 Reference value :  1.25646e-05
 Reference value :  1.25693e-05
 Reference value :  1.25763e-05
 Reference value :  1.25828e-05
 Reference value :  1.25900e-05
 Reference value :  1.25976e-05
 Reference value :  1.26127e-05
 Reference value :  1.26388e-05
 Reference value :  1.26691e-05
 Reference value :  1.27044e-05
 Reference value :  1.27501e-05
 Reference value :  1.27501e-05
 Reference value :  1.27501e-05
 Reference value :  1.27502e-05
 Reference value :  1.27502e-05
 Reference value :  1.27502e-05
 Reference value :  1.27502e-05
 Reference value :  1.27502e-05
 Reference value :  1.27502e-05
 Reference value :  1.27502e-05
 Reference value :  1.27502e-05
 Reference value :  1.27503e-05
 Reference value :  1.27504e-05
 Reference value :  1.27506e-05
 Reference value :  1.27509e-05
 Reference value :  1.27514e-05
 Reference value :  1.27519e-05
 Reference value :  1.27525e-05
 Reference value :  1.27533e-05
 Reference value :  1.27541e-05
 Reference value :  1.27553e-05
 Reference value :  1.27562e-05
 Reference value :  1.27572e-05
 Reference value :  1.27583e-05
 Reference value :  1.27599e-05
 Reference value :  1.27615e-05
 Reference value :  1.27639e-05
 Reference value :  1.27670e-05
 Reference value :  1.27725e-05
 Reference value :  1.27834e-05
 Reference value :  1.28023e-05
 Reference value :  1.28395e-05
 Reference value :  1.29116e-05
 Reference value :  1.30000e-05
 Reference value :  1.30000e-05
 Reference value :  1.30000e-05
 Reference value :  1.30001e-05
 Reference value :  1.30001e-05
 Reference value :  1.30001e-05
 Reference value :  1.30001e-05
 Reference value :  1.30001e-05
 Reference value :  1.30002e-05
 Reference value :  1.30002e-05
 Reference value :  1.30004e-05
 Reference value :  1.30005e-05
 Reference value :  1.30009e-05
 Reference value :  1.30014e-05
 Reference value :  1.30022e-05
 Reference value :  1.30028e-05
 Reference value :  1.30035e-05
 Reference value :  1.30042e-05
 Reference value :  1.30051e-05
 Reference value :  1.30061e-05
 Reference value :  1.30071e-05
 Reference value :  1.30085e-05
 Reference value :  1.30099e-05
 Reference value :  1.30112e-05
 Reference value :  1.30126e-05
 Reference value :  1.30139e-05
 Reference value :  1.30155e-05
 Reference value :  1.30171e-05
 Reference value :  1.30188e-05
 Reference value :  1.30223e-05
 Reference value :  1.30293e-05
 Reference value :  1.30411e-05
 Reference value :  1.30647e-05
 Reference value :  1.31091e-05
 Reference value :  1.31978e-05
 Reference value :  1.32501e-05
 Reference value :  1.32501e-05
 Reference value :  1.32501e-05
 Reference value :  1.32502e-05
 Reference value :  1.32502e-05
 Reference value :  1.32502e-05
 Reference value :  1.32502e-05
 Reference value :  1.32502e-05
 Reference value :  1.32502e-05
 Reference value :  1.32502e-05
 Reference value :  1.32502e-05
 Reference value :  1.32503e-05
 Reference value :  1.32504e-05
 Reference value :  1.32506e-05
 Reference value :  1.32509e-05
 Reference value :  1.32514e-05
 Reference value :  1.32519e-05
 Reference value :  1.32525e-05
 Reference value :  1.32533e-05
 Reference value :  1.32541e-05
 Reference value :  1.32553e-05
 Reference value :  1.32562e-05
 Reference value :  1.32572e-05
 Reference value :  1.32582e-05
 Reference value :  1.32593e-05
 Reference value :  1.32606e-05
 Reference value :  1.32618e-05
 Reference value :  1.32632e-05
 Reference value :  1.32654e-05
 Reference value :  1.32677e-05
 Reference value :  1.32713e-05
 Reference value :  1.32770e-05
 Reference value :  1.32884e-05
 Reference value :  1.33112e-05
 Reference value :  1.33564e-05
 Reference value :  1.34469e-05
 Reference value :  1.35000e-05
 Reference value :  1.35000e-05
 Reference value :  1.35000e-05
 Reference value :  1.35001e-05
 Reference value :  1.35001e-05
 Reference value :  1.35001e-05
 Reference value :  1.35001e-05
 Reference value :  1.35001e-05
 Reference value :  1.35002e-05
 Reference value :  1.35002e-05
 Reference value :  1.35004e-05
 Reference value :  1.35005e-05
 Reference value :  1.35009e-05
 Reference value :  1.35014e-05
 Reference value :  1.35022e-05
 Reference value :  1.35029e-05
 Reference value :  1.35036e-05
 Reference value :  1.35043e-05
 Reference value :  1.35052e-05
 Reference value :  1.35060e-05
 Reference value :  1.35068e-05
 Reference value :  1.35078e-05
 Reference value :  1.35087e-05
 Reference value :  1.35097e-05
 Reference value :  1.35107e-05
 Reference value :  1.35119e-05
 Reference value :  1.35136e-05
 Reference value :  1.35148e-05
 Reference value :  1.35162e-05
 Reference value :  1.35176e-05
 Reference value :  1.35192e-05
 Reference value :  1.35211e-05
 Reference value :  1.35225e-05
 Reference value :  1.35241e-05
 Reference value :  1.35255e-05
 Reference value :  1.35271e-05
 Reference value :  1.35288e-05
 Reference value :  1.35310e-05
 Reference value :  1.35333e-05
 Reference value :  1.35378e-05
 Reference value :  1.35422e-05
 Reference value :  1.35464e-05
 Reference value :  1.35515e-05
 Reference value :  1.35550e-05
 Reference value :  1.35583e-05
 Reference value :  1.35608e-05
 Reference value :  1.35640e-05
 Reference value :  1.35682e-05
 Reference value :  1.35734e-05
 Reference value :  1.35808e-05
 Reference value :  1.35910e-05
 Reference value :  1.36049e-05
 Reference value :  1.36207e-05
 Reference value :  1.36411e-05
 Reference value :  1.36571e-05
 Reference value :  1.36756e-05
 Reference value :  1.36930e-05
 Reference value :  1.37042e-05
 Reference value :  1.37184e-05
 Reference value :  1.37468e-05
 Reference value :  1.37501e-05
 Reference value :  1.37501e-05
 Reference value :  1.37501e-05
 Reference value :  1.37502e-05
 Reference value :  1.37502e-05
 Reference value :  1.37502e-05
 Reference value :  1.37502e-05
 Reference value :  1.37502e-05
 Reference value :  1.37502e-05
 Reference value :  1.37502e-05
 Reference value :  1.37502e-05
 Reference value :  1.37503e-05
 Reference value :  1.37504e-05
 Reference value :  1.37506e-05
 Reference value :  1.37509e-05
 Reference value :  1.37513e-05
 Reference value :  1.37519e-05
 Reference value :  1.37525e-05
 Reference value :  1.37532e-05
 Reference value :  1.37541e-05
 Reference value :  1.37553e-05
 Reference value :  1.37562e-05
 Reference value :  1.37572e-05
 Reference value :  1.37583e-05
 Reference value :  1.37598e-05
 Reference value :  1.37614e-05
 Reference value :  1.37638e-05
 Reference value :  1.37669e-05
 Reference value :  1.37724e-05
 Reference value :  1.37833e-05
 Reference value :  1.38022e-05
 Reference value :  1.38396e-05
 Reference value :  1.38941e-05
 Reference value :  1.39512e-05
 Reference value :  1.40000e-05
 Reference value :  1.40000e-05
 Reference value :  1.40000e-05
 Reference value :  1.40001e-05
 Reference value :  1.40001e-05
 Reference value :  1.40001e-05
 Reference value :  1.40001e-05
 Reference value :  1.40001e-05
 Reference value :  1.40002e-05
 Reference value :  1.40002e-05
 Reference value :  1.40004e-05
 Reference value :  1.40005e-05
 Reference value :  1.40009e-05
 Reference value :  1.40014e-05
 Reference value :  1.40022e-05
 Reference value :  1.40028e-05
 Reference value :  1.40035e-05
 Reference value :  1.40042e-05
 Reference value :  1.40052e-05
 Reference value :  1.40061e-05
 Reference value :  1.40071e-05
 Reference value :  1.40086e-05
 Reference value :  1.40099e-05
 Reference value :  1.40112e-05
 Reference value :  1.40126e-05
 Reference value :  1.40139e-05
 Reference value :  1.40153e-05
 Reference value :  1.40168e-05
 Reference value :  1.40185e-05
 Reference value :  1.40219e-05
 Reference value :  1.40287e-05
 Reference value :  1.40404e-05
 Reference value :  1.40637e-05
 Reference value :  1.41078e-05
 Reference value :  1.41961e-05
 Reference value :  1.42501e-05
 Reference value :  1.42501e-05
 Reference value :  1.42501e-05
 Reference value :  1.42502e-05
 Reference value :  1.42502e-05
 Reference value :  1.42502e-05
 Reference value :  1.42502e-05
 Reference value :  1.42502e-05
 Reference value :  1.42502e-05
 Reference value :  1.42502e-05
 Reference value :  1.42502e-05
 Reference value :  1.42503e-05
 Reference value :  1.42504e-05
 Reference value :  1.42506e-05
 Reference value :  1.42509e-05
 Reference value :  1.42514e-05
 Reference value :  1.42519e-05
 Reference value :  1.42525e-05
 Reference value :  1.42533e-05
 Reference value :  1.42541e-05
 Reference value :  1.42553e-05
 Reference value :  1.42562e-05
 Reference value :  1.42572e-05
 Reference value :  1.42582e-05
 Reference value :  1.42593e-05
 Reference value :  1.42606e-05
 Reference value :  1.42619e-05
 Reference value :  1.42633e-05
 Reference value :  1.42654e-05
 Reference value :  1.42677e-05
 Reference value :  1.42713e-05
 Reference value :  1.42770e-05
 Reference value :  1.42885e-05
 Reference value :  1.43113e-05
 Reference value :  1.43569e-05
 Reference value :  1.44481e-05
 Reference value :  1.45000e-05
 Reference value :  1.45000e-05
 Reference value :  1.45000e-05
 Reference value :  1.45001e-05
 Reference value :  1.45001e-05
 Reference value :  1.45001e-05
 Reference value :  1.45001e-05
 Reference value :  1.45001e-05
 Reference value :  1.45002e-05
 Reference value :  1.45002e-05
 Reference value :  1.45004e-05
 Reference value :  1.45005e-05
 Reference value :  1.45009e-05
 Reference value :  1.45014e-05
 Reference value :  1.45022e-05
 Reference value :  1.45029e-05
 Reference value :  1.45036e-05
 Reference value :  1.45043e-05
 Reference value :  1.45051e-05
 Reference value :  1.45059e-05
 Reference value :  1.45067e-05
 Reference value :  1.45078e-05
 Reference value :  1.45088e-05
 Reference value :  1.45097e-05
 Reference value :  1.45108e-05
 Reference value :  1.45120e-05
 Reference value :  1.45139e-05
 Reference value :  1.45152e-05
 Reference value :  1.45167e-05
 Reference value :  1.45181e-05
 Reference value :  1.45197e-05
 Reference value :  1.45212e-05
 Reference value :  1.45224e-05
 Reference value :  1.45236e-05
 Reference value :  1.45249e-05
 Reference value :  1.45262e-05
 Reference value :  1.45279e-05
 Reference value :  1.45295e-05
 Reference value :  1.45322e-05
 Reference value :  1.45348e-05
 Reference value :  1.45383e-05
 Reference value :  1.45421e-05
 Reference value :  1.45458e-05
 Reference value :  1.45513e-05
 Reference value :  1.45545e-05
 Reference value :  1.45583e-05
 Reference value :  1.45632e-05
 Reference value :  1.45683e-05
 Reference value :  1.45775e-05
 Reference value :  1.45888e-05
 Reference value :  1.46075e-05
 Reference value :  1.46359e-05
 Reference value :  1.46692e-05
 Reference value :  1.47144e-05
 Reference value :  1.47501e-05
 Reference value :  1.47501e-05
 Reference value :  1.47501e-05
 Reference value :  1.47502e-05
 Reference value :  1.47502e-05
 Reference value :  1.47502e-05
 Reference value :  1.47502e-05
 Reference value :  1.47502e-05
 Reference value :  1.47502e-05
 Reference value :  1.47502e-05
 Reference value :  1.47502e-05
 Reference value :  1.47503e-05
 Reference value :  1.47504e-05
 Reference value :  1.47506e-05
 Reference value :  1.47509e-05
 Reference value :  1.47513e-05
 Reference value :  1.47519e-05
 Reference value :  1.47525e-05
 Reference value :  1.47532e-05
 Reference value :  1.47541e-05
 Reference value :  1.47552e-05
 Reference value :  1.47563e-05
 Reference value :  1.47572e-05
 Reference value :  1.47584e-05
 Reference value :  1.47599e-05
 Reference value :  1.47617e-05
 Reference value :  1.47640e-05
 Reference value :  1.47674e-05
 Reference value :  1.47730e-05
 Reference value :  1.47843e-05
 Reference value :  1.48038e-05
 Reference value :  1.48412e-05
 Reference value :  1.48737e-05
 Reference value :  1.49056e-05
 Reference value :  1.49415e-05
 Reference value :  1.49860e-05
 Reference value :  1.50000e-05
 Reference value :  1.50000e-05
 Reference value :  1.50000e-05
 Reference value :  1.50001e-05
 Reference value :  1.50001e-05
 Reference value :  1.50001e-05
 Reference value :  1.50001e-05
 Reference value :  1.50001e-05
 Reference value :  1.50002e-05
 Reference value :  1.50002e-05
 Reference value :  1.50004e-05
 Reference value :  1.50005e-05
 Reference value :  1.50009e-05
 Reference value :  1.50014e-05
 Reference value :  1.50022e-05
 Reference value :  1.50028e-05
 Reference value :  1.50036e-05
 Reference value :  1.50042e-05
 Reference value :  1.50052e-05
 Reference value :  1.50062e-05
 Reference value :  1.50072e-05
 Reference value :  1.50085e-05
 Reference value :  1.50100e-05
 Reference value :  1.50113e-05
 Reference value :  1.50128e-05
 Reference value :  1.50141e-05
 Reference value :  1.50156e-05
 Reference value :  1.50171e-05
 Reference value :  1.50189e-05
 Reference value :  1.50224e-05
 Reference value :  1.50286e-05
 Reference value :  1.50409e-05
 Reference value :  1.50652e-05
 Reference value :  1.51116e-05
 Reference value :  1.52042e-05
 Reference value :  1.52501e-05
 Reference value :  1.52501e-05
 Reference value :  1.52501e-05
 Reference value :  1.52502e-05
 Reference value :  1.52502e-05
 Reference value :  1.52502e-05
 Reference value :  1.52502e-05
 Reference value :  1.52502e-05
 Reference value :  1.52502e-05
 Reference value :  1.52502e-05
 Reference value :  1.52502e-05
 Reference value :  1.52503e-05
 Reference value :  1.52504e-05
 Reference value :  1.52506e-05
 Reference value :  1.52509e-05
 Reference value :  1.52514e-05
 Reference value :  1.52519e-05
 Reference value :  1.52525e-05
 Reference value :  1.52533e-05
 Reference value :  1.52541e-05
 Reference value :  1.52553e-05
 Reference value :  1.52562e-05
 Reference value :  1.52572e-05
 Reference value :  1.52582e-05
 Reference value :  1.52593e-05
 Reference value :  1.52606e-05
 Reference value :  1.52619e-05
 Reference value :  1.52633e-05
 Reference value :  1.52654e-05
 Reference value :  1.52677e-05
 Reference value :  1.52713e-05
 Reference value :  1.52771e-05
 Reference value :  1.52886e-05
 Reference value :  1.53116e-05
 Reference value :  1.53564e-05
 Reference value :  1.54459e-05
 Reference value :  1.55000e-05
 Reference value :  1.55008e-05
 Reference value :  1.55023e-05
 Reference value :  1.55031e-05
 Reference value :  1.55039e-05
 Reference value :  1.55049e-05
 Reference value :  1.55059e-05
 Reference value :  1.55067e-05
 Reference value :  1.55076e-05
 Reference value :  1.55084e-05
 Reference value :  1.55094e-05
 Reference value :  1.55104e-05
 Reference value :  1.55116e-05
 Reference value :  1.55132e-05
 Reference value :  1.55149e-05
 Reference value :  1.55167e-05
 Reference value :  1.55186e-05
 Reference value :  1.55203e-05
 Reference value :  1.55218e-05
 Reference value :  1.55234e-05
 Reference value :  1.55250e-05
 Reference value :  1.55267e-05
 Reference value :  1.55283e-05
 Reference value :  1.55303e-05
 Reference value :  1.55333e-05
[...]
 Reference value :  1.74500e-04
 Reference value :  1.74500e-04
 Reference value :  1.74500e-04
 Reference value :  1.74500e-04
 Reference value :  1.74500e-04
 Reference value :  1.74500e-04
 Reference value :  1.74500e-04
 Reference value :  1.74500e-04
 Reference value :  1.74500e-04
 Reference value :  1.74500e-04
 Reference value :  1.74500e-04
 Reference value :  1.74501e-04
 Reference value :  1.74501e-04
 Reference value :  1.74501e-04
 Reference value :  1.74502e-04
 Reference value :  1.74503e-04
 Reference value :  1.74504e-04
 Reference value :  1.74504e-04
 Reference value :  1.74505e-04
 Reference value :  1.74506e-04
 Reference value :  1.74507e-04
 Reference value :  1.74509e-04
 Reference value :  1.74510e-04
 Reference value :  1.74511e-04
 Reference value :  1.74513e-04
 Reference value :  1.74514e-04
 Reference value :  1.74515e-04
 Reference value :  1.74517e-04
 Reference value :  1.74519e-04
 Reference value :  1.74522e-04
 Reference value :  1.74529e-04
 Reference value :  1.74541e-04
 Reference value :  1.74565e-04
 Reference value :  1.74609e-04
 Reference value :  1.74698e-04
 Reference value :  1.74750e-04
 Reference value :  1.74750e-04
 Reference value :  1.74750e-04
 Reference value :  1.74750e-04
 Reference value :  1.74750e-04
 Reference value :  1.74750e-04
 Reference value :  1.74750e-04
 Reference value :  1.74750e-04
 Reference value :  1.74750e-04
 Reference value :  1.74750e-04
 Reference value :  1.74750e-04
 Reference value :  1.74750e-04
 Reference value :  1.74750e-04
 Reference value :  1.74751e-04
 Reference value :  1.74751e-04
 Reference value :  1.74751e-04
 Reference value :  1.74752e-04
 Reference value :  1.74752e-04
 Reference value :  1.74753e-04
 Reference value :  1.74754e-04
 Reference value :  1.74755e-04
 Reference value :  1.74756e-04
 Reference value :  1.74757e-04
 Reference value :  1.74758e-04
 Reference value :  1.74759e-04
 Reference value :  1.74761e-04
 Reference value :  1.74762e-04
 Reference value :  1.74763e-04
 Reference value :  1.74765e-04
 Reference value :  1.74768e-04
 Reference value :  1.74771e-04
 Reference value :  1.74777e-04
 Reference value :  1.74788e-04
 Reference value :  1.74811e-04
 Reference value :  1.74856e-04
 Reference value :  1.74947e-04
 Reference value :  1.75000e-04
 Reference value :  1.75000e-04
 Reference value :  1.75000e-04
 Reference value :  1.75000e-04
 Reference value :  1.75000e-04
 Reference value :  1.75000e-04
 Reference value :  1.75000e-04
 Reference value :  1.75000e-04
 Reference value :  1.75000e-04
 Reference value :  1.75000e-04
 Reference value :  1.75000e-04
 Reference value :  1.75001e-04
 Reference value :  1.75001e-04
 Reference value :  1.75001e-04
 Reference value :  1.75002e-04
 Reference value :  1.75003e-04
 Reference value :  1.75004e-04
 Reference value :  1.75004e-04
 Reference value :  1.75005e-04
 Reference value :  1.75006e-04
 Reference value :  1.75007e-04
 Reference value :  1.75008e-04
 Reference value :  1.75009e-04
 Reference value :  1.75010e-04
 Reference value :  1.75011e-04
 Reference value :  1.75012e-04
 Reference value :  1.75014e-04
 Reference value :  1.75015e-04
 Reference value :  1.75016e-04
 Reference value :  1.75018e-04
 Reference value :  1.75019e-04
 Reference value :  1.75021e-04
 Reference value :  1.75023e-04
 Reference value :  1.75024e-04
 Reference value :  1.75026e-04
 Reference value :  1.75027e-04
 Reference value :  1.75029e-04
 Reference value :  1.75031e-04
 Reference value :  1.75033e-04
 Reference value :  1.75036e-04
 Reference value :  1.75037e-04
 Reference value :  1.75039e-04
 Reference value :  1.75041e-04
 Reference value :  1.75042e-04
 Reference value :  1.75045e-04
 Reference value :  1.75048e-04
 Reference value :  1.75052e-04
 Reference value :  1.75058e-04
 Reference value :  1.75068e-04
 Reference value :  1.75084e-04
 Reference value :  1.75102e-04
 Reference value :  1.75123e-04
 Reference value :  1.75154e-04
 Reference value :  1.75216e-04
 Reference value :  1.75250e-04
 Reference value :  1.75250e-04
 Reference value :  1.75250e-04
 Reference value :  1.75250e-04
 Reference value :  1.75250e-04
 Reference value :  1.75250e-04
 Reference value :  1.75250e-04
 Reference value :  1.75250e-04
 Reference value :  1.75250e-04
 Reference value :  1.75250e-04
 Reference value :  1.75250e-04
 Reference value :  1.75250e-04
 Reference value :  1.75250e-04
 Reference value :  1.75251e-04
 Reference value :  1.75251e-04
 Reference value :  1.75251e-04
 Reference value :  1.75252e-04
 Reference value :  1.75252e-04
 Reference value :  1.75253e-04
 Reference value :  1.75254e-04
 Reference value :  1.75255e-04
 Reference value :  1.75256e-04
 Reference value :  1.75257e-04
 Reference value :  1.75258e-04
 Reference value :  1.75260e-04
 Reference value :  1.75261e-04
 Reference value :  1.75264e-04
 Reference value :  1.75266e-04
 Reference value :  1.75271e-04
 Reference value :  1.75282e-04
 Reference value :  1.75300e-04
 Reference value :  1.75336e-04
 Reference value :  1.75408e-04
 Reference value :  1.75500e-04
 Reference value :  1.75500e-04
 Reference value :  1.75500e-04
 Reference value :  1.75500e-04
 Reference value :  1.75500e-04
 Reference value :  1.75500e-04
 Reference value :  1.75500e-04
 Reference value :  1.75500e-04
 Reference value :  1.75500e-04
 Reference value :  1.75500e-04
 Reference value :  1.75500e-04
 Reference value :  1.75501e-04
 Reference value :  1.75501e-04
 Reference value :  1.75501e-04
 Reference value :  1.75502e-04
 Reference value :  1.75503e-04
 Reference value :  1.75504e-04
 Reference value :  1.75504e-04
 Reference value :  1.75505e-04
 Reference value :  1.75506e-04
 Reference value :  1.75507e-04
 Reference value :  1.75509e-04
 Reference value :  1.75510e-04
 Reference value :  1.75511e-04
 Reference value :  1.75512e-04
 Reference value :  1.75514e-04
 Reference value :  1.75515e-04
 Reference value :  1.75517e-04
 Reference value :  1.75518e-04
 Reference value :  1.75522e-04
 Reference value :  1.75528e-04
 Reference value :  1.75540e-04
 Reference value :  1.75563e-04
 Reference value :  1.75606e-04
 Reference value :  1.75687e-04
 Reference value :  1.75750e-04
 Reference value :  1.75750e-04
 Reference value :  1.75750e-04
 Reference value :  1.75750e-04
 Reference value :  1.75750e-04
 Reference value :  1.75750e-04
 Reference value :  1.75750e-04
 Reference value :  1.75750e-04
 Reference value :  1.75750e-04
 Reference value :  1.75750e-04
 Reference value :  1.75750e-04
 Reference value :  1.75750e-04
 Reference value :  1.75750e-04
 Reference value :  1.75751e-04
 Reference value :  1.75751e-04
 Reference value :  1.75751e-04
 Reference value :  1.75752e-04
 Reference value :  1.75752e-04
 Reference value :  1.75753e-04
 Reference value :  1.75754e-04
 Reference value :  1.75755e-04
 Reference value :  1.75756e-04
 Reference value :  1.75757e-04
 Reference value :  1.75758e-04
 Reference value :  1.75759e-04
 Reference value :  1.75761e-04
 Reference value :  1.75763e-04
 Reference value :  1.75766e-04
 Reference value :  1.75770e-04
 Reference value :  1.75779e-04
 Reference value :  1.75796e-04
 Reference value :  1.75829e-04
 Reference value :  1.75895e-04
 Reference value :  1.76000e-04
 Reference value :  1.76000e-04
 Reference value :  1.76000e-04
 Reference value :  1.76000e-04
 Reference value :  1.76000e-04
 Reference value :  1.76000e-04
 Reference value :  1.76000e-04
 Reference value :  1.76000e-04
 Reference value :  1.76000e-04
 Reference value :  1.76000e-04
 Reference value :  1.76000e-04
 Reference value :  1.76001e-04
 Reference value :  1.76001e-04
 Reference value :  1.76001e-04
 Reference value :  1.76002e-04
 Reference value :  1.76003e-04
 Reference value :  1.76004e-04
 Reference value :  1.76004e-04
 Reference value :  1.76005e-04
 Reference value :  1.76006e-04
 Reference value :  1.76007e-04
 Reference value :  1.76008e-04
 Reference value :  1.76009e-04
 Reference value :  1.76010e-04
 Reference value :  1.76011e-04
 Reference value :  1.76012e-04
 Reference value :  1.76014e-04
 Reference value :  1.76016e-04
 Reference value :  1.76018e-04
 Reference value :  1.76021e-04
 Reference value :  1.76022e-04
 Reference value :  1.76024e-04
 Reference value :  1.76026e-04
 Reference value :  1.76028e-04
 Reference value :  1.76029e-04
 Reference value :  1.76032e-04
 Reference value :  1.76034e-04
 Reference value :  1.76039e-04
 Reference value :  1.76045e-04
 Reference value :  1.76053e-04
 Reference value :  1.76061e-04
 Reference value :  1.76067e-04
 Reference value :  1.76073e-04
 Reference value :  1.76080e-04
 Reference value :  1.76086e-04
 Reference value :  1.76092e-04
 Reference value :  1.76100e-04
 Reference value :  1.76109e-04
 Reference value :  1.76124e-04
 Reference value :  1.76142e-04
 Reference value :  1.76170e-04
 Reference value :  1.76214e-04
 Reference value :  1.76250e-04
 Reference value :  1.76250e-04
 Reference value :  1.76250e-04
 Reference value :  1.76250e-04
 Reference value :  1.76250e-04
 Reference value :  1.76250e-04
 Reference value :  1.76250e-04
 Reference value :  1.76250e-04
 Reference value :  1.76250e-04
 Reference value :  1.76250e-04
 Reference value :  1.76250e-04
 Reference value :  1.76250e-04
 Reference value :  1.76250e-04
 Reference value :  1.76251e-04
 Reference value :  1.76251e-04
 Reference value :  1.76251e-04
 Reference value :  1.76252e-04
 Reference value :  1.76252e-04
 Reference value :  1.76253e-04
 Reference value :  1.76254e-04
 Reference value :  1.76255e-04
 Reference value :  1.76256e-04
 Reference value :  1.76257e-04
 Reference value :  1.76258e-04
 Reference value :  1.76260e-04
 Reference value :  1.76261e-04
 Reference value :  1.76264e-04
 Reference value :  1.76267e-04
 Reference value :  1.76272e-04
 Reference value :  1.76283e-04
 Reference value :  1.76302e-04
 Reference value :  1.76339e-04
 Reference value :  1.76410e-04
 Reference value :  1.76500e-04
 Reference value :  1.76500e-04
 Reference value :  1.76500e-04
 Reference value :  1.76500e-04
 Reference value :  1.76500e-04
 Reference value :  1.76500e-04
 Reference value :  1.76500e-04
 Reference value :  1.76500e-04
 Reference value :  1.76500e-04
 Reference value :  1.76500e-04
 Reference value :  1.76500e-04
 Reference value :  1.76501e-04
 Reference value :  1.76501e-04
 Reference value :  1.76501e-04
 Reference value :  1.76502e-04
 Reference value :  1.76503e-04
 Reference value :  1.76504e-04
 Reference value :  1.76504e-04
 Reference value :  1.76505e-04
 Reference value :  1.76506e-04
 Reference value :  1.76507e-04
 Reference value :  1.76509e-04
 Reference value :  1.76510e-04
 Reference value :  1.76511e-04
 Reference value :  1.76513e-04
 Reference value :  1.76514e-04
 Reference value :  1.76516e-04
 Reference value :  1.76517e-04
 Reference value :  1.76519e-04
 Reference value :  1.76522e-04
 Reference value :  1.76529e-04
 Reference value :  1.76541e-04
 Reference value :  1.76553e-04
 Reference value :  1.76564e-04
 Reference value :  1.76575e-04
 Reference value :  1.76587e-04
 Reference value :  1.76612e-04
 Reference value :  1.76650e-04
 Reference value :  1.76695e-04
 Reference value :  1.76738e-04
 Reference value :  1.76750e-04
 Reference value :  1.76750e-04
 Reference value :  1.76750e-04
 Reference value :  1.76750e-04
 Reference value :  1.76750e-04
 Reference value :  1.76750e-04
 Reference value :  1.76750e-04
 Reference value :  1.76750e-04
 Reference value :  1.76750e-04
 Reference value :  1.76750e-04
 Reference value :  1.76750e-04
 Reference value :  1.76750e-04
 Reference value :  1.76750e-04
 Reference value :  1.76751e-04
 Reference value :  1.76751e-04
 Reference value :  1.76751e-04
 Reference value :  1.76752e-04
 Reference value :  1.76752e-04
 Reference value :  1.76753e-04
 Reference value :  1.76754e-04
 Reference value :  1.76755e-04
 Reference value :  1.76756e-04
 Reference value :  1.76757e-04
 Reference value :  1.76758e-04
 Reference value :  1.76759e-04
 Reference value :  1.76761e-04
 Reference value :  1.76763e-04
 Reference value :  1.76766e-04
 Reference value :  1.76770e-04
 Reference value :  1.76778e-04
 Reference value :  1.76795e-04
 Reference value :  1.76828e-04
 Reference value :  1.76891e-04
 Reference value :  1.77000e-04
 Reference value :  1.77000e-04
 Reference value :  1.77000e-04
 Reference value :  1.77000e-04
 Reference value :  1.77000e-04
 Reference value :  1.77000e-04
 Reference value :  1.77000e-04
 Reference value :  1.77000e-04
 Reference value :  1.77000e-04
 Reference value :  1.77000e-04
 Reference value :  1.77000e-04
 Reference value :  1.77001e-04
 Reference value :  1.77001e-04
 Reference value :  1.77001e-04
 Reference value :  1.77002e-04
 Reference value :  1.77003e-04
 Reference value :  1.77004e-04
 Reference value :  1.77004e-04
 Reference value :  1.77005e-04
 Reference value :  1.77006e-04
 Reference value :  1.77007e-04
 Reference value :  1.77008e-04
 Reference value :  1.77009e-04
 Reference value :  1.77010e-04
 Reference value :  1.77011e-04
 Reference value :  1.77012e-04
 Reference value :  1.77014e-04
 Reference value :  1.77016e-04
 Reference value :  1.77018e-04
 Reference value :  1.77021e-04
 Reference value :  1.77022e-04
 Reference value :  1.77024e-04
 Reference value :  1.77026e-04
 Reference value :  1.77028e-04
 Reference value :  1.77030e-04
 Reference value :  1.77032e-04
 Reference value :  1.77034e-04
 Reference value :  1.77039e-04
 Reference value :  1.77045e-04
 Reference value :  1.77052e-04
 Reference value :  1.77057e-04
 Reference value :  1.77062e-04
 Reference value :  1.77067e-04
 Reference value :  1.77073e-04
 Reference value :  1.77081e-04
 Reference value :  1.77088e-04
 Reference value :  1.77096e-04
 Reference value :  1.77111e-04
 Reference value :  1.77126e-04
 Reference value :  1.77152e-04
 Reference value :  1.77191e-04
 Reference value :  1.77246e-04
 Reference value :  1.77250e-04
 Reference value :  1.77250e-04
 Reference value :  1.77250e-04
 Reference value :  1.77250e-04
 Reference value :  1.77250e-04
 Reference value :  1.77250e-04
 Reference value :  1.77250e-04
 Reference value :  1.77250e-04
 Reference value :  1.77250e-04
 Reference value :  1.77250e-04
 Reference value :  1.77250e-04
 Reference value :  1.77250e-04
 Reference value :  1.77250e-04
 Reference value :  1.77251e-04
 Reference value :  1.77251e-04
 Reference value :  1.77251e-04
 Reference value :  1.77252e-04
 Reference value :  1.77252e-04
 Reference value :  1.77253e-04
 Reference value :  1.77254e-04
 Reference value :  1.77255e-04
 Reference value :  1.77256e-04
 Reference value :  1.77257e-04
 Reference value :  1.77258e-04
 Reference value :  1.77260e-04
 Reference value :  1.77262e-04
 Reference value :  1.77264e-04
 Reference value :  1.77267e-04
 Reference value :  1.77273e-04
 Reference value :  1.77284e-04
 Reference value :  1.77304e-04
 Reference value :  1.77341e-04
 Reference value :  1.77411e-04
 Reference value :  1.77500e-04
 Reference value :  1.77500e-04
 Reference value :  1.77500e-04
 Reference value :  1.77500e-04
 Reference value :  1.77500e-04
 Reference value :  1.77500e-04
 Reference value :  1.77500e-04
 Reference value :  1.77500e-04
 Reference value :  1.77500e-04
 Reference value :  1.77500e-04
 Reference value :  1.77500e-04
 Reference value :  1.77501e-04
 Reference value :  1.77501e-04
 Reference value :  1.77501e-04
 Reference value :  1.77502e-04
 Reference value :  1.77503e-04
 Reference value :  1.77503e-04
 Reference value :  1.77504e-04
 Reference value :  1.77505e-04
 Reference value :  1.77506e-04
 Reference value :  1.77507e-04
 Reference value :  1.77508e-04
 Reference value :  1.77510e-04
 Reference value :  1.77511e-04
 Reference value :  1.77512e-04
 Reference value :  1.77514e-04
 Reference value :  1.77515e-04
 Reference value :  1.77517e-04
 Reference value :  1.77519e-04
 Reference value :  1.77522e-04
 Reference value :  1.77527e-04
 Reference value :  1.77536e-04
 Reference value :  1.77552e-04
 Reference value :  1.77582e-04
 Reference value :  1.77637e-04
 Reference value :  1.77739e-04
 Reference value :  1.77750e-04
 Reference value :  1.77750e-04
 Reference value :  1.77750e-04
 Reference value :  1.77750e-04
 Reference value :  1.77750e-04
 Reference value :  1.77750e-04
 Reference value :  1.77750e-04
 Reference value :  1.77750e-04
 Reference value :  1.77750e-04
 Reference value :  1.77750e-04
 Reference value :  1.77750e-04
 Reference value :  1.77750e-04
 Reference value :  1.77750e-04
 Reference value :  1.77751e-04
 Reference value :  1.77751e-04
 Reference value :  1.77751e-04
 Reference value :  1.77752e-04
 Reference value :  1.77752e-04
 Reference value :  1.77753e-04
 Reference value :  1.77754e-04
 Reference value :  1.77755e-04
 Reference value :  1.77756e-04
 Reference value :  1.77757e-04
 Reference value :  1.77758e-04
 Reference value :  1.77759e-04
 Reference value :  1.77761e-04
 Reference value :  1.77762e-04
 Reference value :  1.77763e-04
 Reference value :  1.77765e-04
 Reference value :  1.77768e-04
 Reference value :  1.77771e-04
 Reference value :  1.77777e-04
 Reference value :  1.77789e-04
 Reference value :  1.77812e-04
 Reference value :  1.77855e-04
 Reference value :  1.77940e-04
 Reference value :  1.78000e-04
 Reference value :  1.78000e-04
 Reference value :  1.78000e-04
 Reference value :  1.78000e-04
 Reference value :  1.78000e-04
 Reference value :  1.78000e-04
 Reference value :  1.78000e-04
 Reference value :  1.78000e-04
 Reference value :  1.78000e-04
 Reference value :  1.78000e-04
 Reference value :  1.78000e-04
 Reference value :  1.78001e-04
 Reference value :  1.78001e-04
 Reference value :  1.78001e-04
 Reference value :  1.78002e-04
 Reference value :  1.78003e-04
 Reference value :  1.78003e-04
 Reference value :  1.78004e-04
 Reference value :  1.78005e-04
 Reference value :  1.78006e-04
 Reference value :  1.78007e-04
 Reference value :  1.78008e-04
 Reference value :  1.78009e-04
 Reference value :  1.78010e-04
 Reference value :  1.78011e-04
 Reference value :  1.78012e-04
 Reference value :  1.78014e-04
 Reference value :  1.78015e-04
 Reference value :  1.78017e-04
 Reference value :  1.78018e-04
 Reference value :  1.78020e-04
 Reference value :  1.78022e-04
 Reference value :  1.78024e-04
 Reference value :  1.78027e-04
 Reference value :  1.78030e-04
 Reference value :  1.78036e-04
 Reference value :  1.78041e-04
 Reference value :  1.78049e-04
 Reference value :  1.78056e-04
 Reference value :  1.78062e-04
 Reference value :  1.78068e-04
 Reference value :  1.78075e-04
 Reference value :  1.78083e-04
 Reference value :  1.78097e-04
 Reference value :  1.78108e-04
 Reference value :  1.78122e-04
 Reference value :  1.78149e-04
 Reference value :  1.78187e-04
 Reference value :  1.78250e-04
 Reference value :  1.78250e-04
 Reference value :  1.78250e-04
 Reference value :  1.78250e-04
 Reference value :  1.78250e-04
 Reference value :  1.78250e-04
 Reference value :  1.78250e-04
 Reference value :  1.78250e-04
 Reference value :  1.78250e-04
 Reference value :  1.78250e-04
 Reference value :  1.78250e-04
 Reference value :  1.78250e-04
 Reference value :  1.78250e-04
 Reference value :  1.78251e-04
 Reference value :  1.78251e-04
 Reference value :  1.78251e-04
 Reference value :  1.78252e-04
 Reference value :  1.78252e-04
 Reference value :  1.78253e-04
 Reference value :  1.78254e-04
 Reference value :  1.78255e-04
 Reference value :  1.78256e-04
 Reference value :  1.78258e-04
 Reference value :  1.78259e-04
 Reference value :  1.78261e-04
 Reference value :  1.78264e-04
 Reference value :  1.78267e-04
 Reference value :  1.78272e-04
 Reference value :  1.78282e-04
 Reference value :  1.78298e-04
 Reference value :  1.78330e-04
 Reference value :  1.78385e-04
 Reference value :  1.78494e-04
 Reference value :  1.78500e-04
No. of Data Rows : 27571
ngspice-44 done
