
Note: Compatibility modes selected: hs a


Circuit: ** sch_path: /home/samantha/cace/sar-adc-using-sky130-pdk/runs/run_2025-09-01_00-26-20/parameters/offset_error/run_2/offset_error.sch

option SCALE: Scale is set to 1e-06 for instance and model parameters
option SCALE: Scale is set to 1e-06 for instance and model parameters
option SCALE: Scale is set to 1e-06 for instance and model parameters
option SCALE: Scale is set to 1e-06 for instance and model parameters
Doing analysis at TEMP = 27.000000 and TNOM = 27.000000

Using KLU as Direct Linear Solver
Operating point simulation skipped by 'uic',
  now using transient initial conditions.
 Reference value :  1.00000e-12
 Reference value :  1.02800e-12
 Reference value :  1.08400e-12
 Reference value :  1.19600e-12
 Reference value :  1.73830e-12
 Reference value :  2.37490e-12
 Reference value :  4.47282e-12
 Reference value :  6.32507e-12
 Reference value :  1.35021e-11
 Reference value :  1.96281e-11
 Reference value :  3.16769e-11
 Reference value :  5.57747e-11
 Reference value :  1.00000e-10
 Reference value :  1.04820e-10
 Reference value :  1.14459e-10
 Reference value :  1.72293e-10
 Reference value :  2.49406e-10
 Reference value :  4.03631e-10
 Reference value :  6.44252e-10
 Reference value :  9.57210e-10
 Reference value :  1.34477e-09
 Reference value :  1.86973e-09
 Reference value :  2.51384e-09
 Reference value :  3.30679e-09
 Reference value :  4.19996e-09
 Reference value :  5.15846e-09
 Reference value :  5.95734e-09
 Reference value :  7.00498e-09
 Reference value :  7.97626e-09
 Reference value :  8.85528e-09
 Reference value :  9.77823e-09
 Reference value :  1.07870e-08
 Reference value :  1.19480e-08
 Reference value :  1.39933e-08
 Reference value :  1.69496e-08
 Reference value :  2.03213e-08
 Reference value :  2.34553e-08
 Reference value :  2.65867e-08
 Reference value :  2.98018e-08
 Reference value :  3.32681e-08
 Reference value :  3.91061e-08
 Reference value :  4.57453e-08
 Reference value :  5.90237e-08
 Reference value :  8.55806e-08
 Reference value :  1.38694e-07
 Reference value :  2.50100e-07
 Reference value :  2.50110e-07
 Reference value :  2.50130e-07
 Reference value :  2.50170e-07
 Reference value :  2.50200e-07
 Reference value :  2.50207e-07
 Reference value :  2.50252e-07
 Reference value :  2.50311e-07
 Reference value :  2.50403e-07
 Reference value :  2.50545e-07
 Reference value :  2.50998e-07
 Reference value :  2.51447e-07
 Reference value :  2.51916e-07
 Reference value :  2.52402e-07
 Reference value :  2.53070e-07
 Reference value :  2.53889e-07
 Reference value :  2.54456e-07
 Reference value :  2.55113e-07
 Reference value :  2.55815e-07
 Reference value :  2.56709e-07
 Reference value :  2.57581e-07
 Reference value :  2.59014e-07
 Reference value :  2.60589e-07
 Reference value :  2.63242e-07
 Reference value :  2.73092e-07
 Reference value :  2.84484e-07
 Reference value :  3.03550e-07
 Reference value :  3.39745e-07
 Reference value :  4.07011e-07
 Reference value :  5.00000e-07
 Reference value :  5.00010e-07
 Reference value :  5.00030e-07
 Reference value :  5.00070e-07
 Reference value :  5.00100e-07
 Reference value :  5.00108e-07
 Reference value :  5.00124e-07
 Reference value :  5.00156e-07
 Reference value :  5.00220e-07
 Reference value :  5.00348e-07
 Reference value :  5.00520e-07
 Reference value :  5.00863e-07
 Reference value :  5.01300e-07
 Reference value :  5.01763e-07
 Reference value :  5.02206e-07
 Reference value :  5.02698e-07
 Reference value :  5.03307e-07
 Reference value :  5.04059e-07
 Reference value :  5.04852e-07
 Reference value :  5.05642e-07
 Reference value :  5.06778e-07
 Reference value :  5.08088e-07
 Reference value :  5.09638e-07
 Reference value :  5.10930e-07
 Reference value :  5.13995e-07
 Reference value :  5.15840e-07
 Reference value :  5.17853e-07
 Reference value :  5.22494e-07
 Reference value :  5.27045e-07
 Reference value :  5.41467e-07
 Reference value :  5.84581e-07
 Reference value :  7.16966e-07
 Reference value :  7.50110e-07
 Reference value :  7.50130e-07
 Reference value :  7.50200e-07
 Reference value :  7.50208e-07
 Reference value :  7.50254e-07
 Reference value :  7.50317e-07
 Reference value :  7.50614e-07
 Reference value :  7.51262e-07
 Reference value :  7.51751e-07
 Reference value :  7.52826e-07
 Reference value :  7.53589e-07
 Reference value :  7.54155e-07
 Reference value :  7.54810e-07
 Reference value :  7.55395e-07
 Reference value :  7.56044e-07
 Reference value :  7.56899e-07
 Reference value :  7.57793e-07
 Reference value :  7.58713e-07
 Reference value :  7.59905e-07
 Reference value :  7.62913e-07
 Reference value :  7.68578e-07
 Reference value :  7.74669e-07
 Reference value :  7.97505e-07
 Reference value :  8.55645e-07
 Reference value :  1.00000e-06
 Reference value :  1.00001e-06
 Reference value :  1.00003e-06
 Reference value :  1.00007e-06
 Reference value :  1.00010e-06
 Reference value :  1.00012e-06
 Reference value :  1.00022e-06
 Reference value :  1.00035e-06
 Reference value :  1.00052e-06
 Reference value :  1.00086e-06
 Reference value :  1.00130e-06
 Reference value :  1.00176e-06
 Reference value :  1.00224e-06
 Reference value :  1.00340e-06
 Reference value :  1.00403e-06
 Reference value :  1.00457e-06
 Reference value :  1.00521e-06
 Reference value :  1.00581e-06
 Reference value :  1.00649e-06
 Reference value :  1.00718e-06
 Reference value :  1.00806e-06
 Reference value :  1.00908e-06
 Reference value :  1.01146e-06
 Reference value :  1.01254e-06
 Reference value :  1.01356e-06
 Reference value :  1.01468e-06
 Reference value :  1.01544e-06
 Reference value :  1.01626e-06
 Reference value :  1.01734e-06
 Reference value :  1.01951e-06
 Reference value :  1.02080e-06
 Reference value :  1.02216e-06
 Reference value :  1.02673e-06
 Reference value :  1.04007e-06
 Reference value :  1.05396e-06
 Reference value :  1.12006e-06
 Reference value :  1.25010e-06
 Reference value :  1.25011e-06
 Reference value :  1.25013e-06
 Reference value :  1.25017e-06
 Reference value :  1.25021e-06
 Reference value :  1.25025e-06
 Reference value :  1.25032e-06
 Reference value :  1.25061e-06
 Reference value :  1.25085e-06
 Reference value :  1.25175e-06
 Reference value :  1.25283e-06
 Reference value :  1.25363e-06
 Reference value :  1.25420e-06
 Reference value :  1.25485e-06
 Reference value :  1.25547e-06
 Reference value :  1.25614e-06
 Reference value :  1.25834e-06
 Reference value :  1.26267e-06
 Reference value :  1.27337e-06
 Reference value :  1.31615e-06
 Reference value :  1.48731e-06
 Reference value :  1.50001e-06
 Reference value :  1.50003e-06
 Reference value :  1.50010e-06
 Reference value :  1.50012e-06
 Reference value :  1.50022e-06
 Reference value :  1.50052e-06
 Reference value :  1.50130e-06
 Reference value :  1.50221e-06
 Reference value :  1.50270e-06
 Reference value :  1.50404e-06
 Reference value :  1.50559e-06
 Reference value :  1.50674e-06
 Reference value :  1.50756e-06
 Reference value :  1.50850e-06
 Reference value :  1.50950e-06
 Reference value :  1.51178e-06
 Reference value :  1.51551e-06
 Reference value :  1.52584e-06
 Reference value :  1.56173e-06
 Reference value :  1.70355e-06
 Reference value :  1.75011e-06
 Reference value :  1.75013e-06
 Reference value :  1.75017e-06
 Reference value :  1.75021e-06
 Reference value :  1.75022e-06
 Reference value :  1.75032e-06
 Reference value :  1.75045e-06
 Reference value :  1.75062e-06
 Reference value :  1.75086e-06
 Reference value :  1.75127e-06
 Reference value :  1.75176e-06
 Reference value :  1.75226e-06
 Reference value :  1.75361e-06
 Reference value :  1.75417e-06
 Reference value :  1.75540e-06
 Reference value :  1.75688e-06
 Reference value :  1.75869e-06
 Reference value :  1.75991e-06
 Reference value :  1.76290e-06
 Reference value :  1.76852e-06
 Reference value :  1.78274e-06
 Reference value :  1.81853e-06
 Reference value :  1.91042e-06
 Reference value :  2.00001e-06
 Reference value :  2.00007e-06
 Reference value :  2.00011e-06
 Reference value :  2.00016e-06
 Reference value :  2.00035e-06
 Reference value :  2.00086e-06
 Reference value :  2.00130e-06
 Reference value :  2.00176e-06
 Reference value :  2.00223e-06
 Reference value :  2.00340e-06
 Reference value :  2.00457e-06
 Reference value :  2.00520e-06
 Reference value :  2.00581e-06
 Reference value :  2.00649e-06
 Reference value :  2.00806e-06
 Reference value :  2.00908e-06
 Reference value :  2.01047e-06
 Reference value :  2.01147e-06
 Reference value :  2.01255e-06
 Reference value :  2.01356e-06
 Reference value :  2.01468e-06
 Reference value :  2.01544e-06
 Reference value :  2.01626e-06
 Reference value :  2.01735e-06
 Reference value :  2.01848e-06
 Reference value :  2.02082e-06
 Reference value :  2.02422e-06
 Reference value :  2.03200e-06
 Reference value :  2.05422e-06
 Reference value :  2.11466e-06
 Reference value :  2.25010e-06
 Reference value :  2.25013e-06
 Reference value :  2.25020e-06
 Reference value :  2.25022e-06
 Reference value :  2.25032e-06
 Reference value :  2.25061e-06
 Reference value :  2.25126e-06
 Reference value :  2.25175e-06
 Reference value :  2.25283e-06
 Reference value :  2.25363e-06
 Reference value :  2.25420e-06
 Reference value :  2.25547e-06
 Reference value :  2.25711e-06
 Reference value :  2.26003e-06
 Reference value :  2.26623e-06
 Reference value :  2.28763e-06
 Reference value :  2.37322e-06
 Reference value :  2.50000e-06
 Reference value :  2.50003e-06
 Reference value :  2.50010e-06
 Reference value :  2.50012e-06
 Reference value :  2.50022e-06
 Reference value :  2.50035e-06
 Reference value :  2.50086e-06
 Reference value :  2.50130e-06
 Reference value :  2.50221e-06
 Reference value :  2.50331e-06
 Reference value :  2.50485e-06
 Reference value :  2.50559e-06
 Reference value :  2.50674e-06
 Reference value :  2.50756e-06
 Reference value :  2.50950e-06
 Reference value :  2.51178e-06
 Reference value :  2.51549e-06
 Reference value :  2.52571e-06
 Reference value :  2.56094e-06
 Reference value :  2.70026e-06
 Reference value :  2.75011e-06
 Reference value :  2.75017e-06
 Reference value :  2.75021e-06
 Reference value :  2.75026e-06
 Reference value :  2.75045e-06
 Reference value :  2.75086e-06
 Reference value :  2.75176e-06
 Reference value :  2.75284e-06
 Reference value :  2.75361e-06
 Reference value :  2.75417e-06
 Reference value :  2.75540e-06
 Reference value :  2.75688e-06
 Reference value :  2.75869e-06
 Reference value :  2.76111e-06
 Reference value :  2.76524e-06
 Reference value :  2.77449e-06
 Reference value :  2.79677e-06
 Reference value :  2.85282e-06
 Reference value :  3.00000e-06
 Reference value :  3.00003e-06
 Reference value :  3.00010e-06
 Reference value :  3.00012e-06
 Reference value :  3.00022e-06
 Reference value :  3.00052e-06
 Reference value :  3.00130e-06
 Reference value :  3.00223e-06
 Reference value :  3.00340e-06
 Reference value :  3.00403e-06
 Reference value :  3.00457e-06
 Reference value :  3.00520e-06
 Reference value :  3.00581e-06
 Reference value :  3.00649e-06
 Reference value :  3.00806e-06
 Reference value :  3.01047e-06
 Reference value :  3.01147e-06
 Reference value :  3.01255e-06
 Reference value :  3.01356e-06
 Reference value :  3.01543e-06
 Reference value :  3.01736e-06
 Reference value :  3.01849e-06
 Reference value :  3.02085e-06
 Reference value :  3.02426e-06
 Reference value :  3.03215e-06
 Reference value :  3.05453e-06
 Reference value :  3.12035e-06
 Reference value :  3.22347e-06
 Reference value :  3.25011e-06
 Reference value :  3.25017e-06
 Reference value :  3.25021e-06
 Reference value :  3.25026e-06
 Reference value :  3.25045e-06
 Reference value :  3.25062e-06
 Reference value :  3.25127e-06
 Reference value :  3.25176e-06
 Reference value :  3.25226e-06
 Reference value :  3.25364e-06
 Reference value :  3.25421e-06
 Reference value :  3.25548e-06
 Reference value :  3.25615e-06
 Reference value :  3.25837e-06
 Reference value :  3.26273e-06
 Reference value :  3.27345e-06
 Reference value :  3.31634e-06
 Reference value :  3.48788e-06
 Reference value :  3.50001e-06
 Reference value :  3.50007e-06
 Reference value :  3.50010e-06
 Reference value :  3.50012e-06
 Reference value :  3.50022e-06
 Reference value :  3.50052e-06
 Reference value :  3.50130e-06
 Reference value :  3.50176e-06
 Reference value :  3.50221e-06
 Reference value :  3.50331e-06
 Reference value :  3.50404e-06
 Reference value :  3.50485e-06
 Reference value :  3.50674e-06
 Reference value :  3.50756e-06
 Reference value :  3.50950e-06
 Reference value :  3.51178e-06
 Reference value :  3.51326e-06
 Reference value :  3.51547e-06
 Reference value :  3.52563e-06
 Reference value :  3.56043e-06
 Reference value :  3.69805e-06
 Reference value :  3.75011e-06
 Reference value :  3.75017e-06
 Reference value :  3.75020e-06
 Reference value :  3.75022e-06
 Reference value :  3.75032e-06
 Reference value :  3.75062e-06
 Reference value :  3.75086e-06
 Reference value :  3.75176e-06
 Reference value :  3.75284e-06
 Reference value :  3.75361e-06
 Reference value :  3.75417e-06
 Reference value :  3.75540e-06
 Reference value :  3.75604e-06
 Reference value :  3.75688e-06
 Reference value :  3.75869e-06
 Reference value :  3.75991e-06
 Reference value :  3.76290e-06
 Reference value :  3.76852e-06
 Reference value :  3.78274e-06
 Reference value :  3.81855e-06
 Reference value :  3.91037e-06
 Reference value :  4.00001e-06
 Reference value :  4.00007e-06
 Reference value :  4.00011e-06
 Reference value :  4.00016e-06
 Reference value :  4.00035e-06
 Reference value :  4.00086e-06
 Reference value :  4.00130e-06
 Reference value :  4.00223e-06
 Reference value :  4.00340e-06
 Reference value :  4.00402e-06
 Reference value :  4.00457e-06
 Reference value :  4.00520e-06
 Reference value :  4.00581e-06
 Reference value :  4.00649e-06
 Reference value :  4.00806e-06
 Reference value :  4.01047e-06
 Reference value :  4.01147e-06
 Reference value :  4.01255e-06
 Reference value :  4.01387e-06
 Reference value :  4.01514e-06
 Reference value :  4.01767e-06
 Reference value :  4.01882e-06
 Reference value :  4.02140e-06
 Reference value :  4.02501e-06
 Reference value :  4.03341e-06
 Reference value :  4.05799e-06
 Reference value :  4.10805e-06
 Reference value :  4.12127e-06
 Reference value :  4.13853e-06
 Reference value :  4.19513e-06
 Reference value :  4.25010e-06
 Reference value :  4.25011e-06
 Reference value :  4.25017e-06
 Reference value :  4.25021e-06
 Reference value :  4.25025e-06
 Reference value :  4.25040e-06
 Reference value :  4.25078e-06
 Reference value :  4.25158e-06
 Reference value :  4.25211e-06
 Reference value :  4.25339e-06
 Reference value :  4.25421e-06
 Reference value :  4.25480e-06
 Reference value :  4.25615e-06
 Reference value :  4.25700e-06
 Reference value :  4.25791e-06
 Reference value :  4.26199e-06
 Reference value :  4.27146e-06
 Reference value :  4.30127e-06
 Reference value :  4.39603e-06
 Reference value :  4.50001e-06
 Reference value :  4.50007e-06
 Reference value :  4.50011e-06
 Reference value :  4.50016e-06
 Reference value :  4.50035e-06
 Reference value :  4.50097e-06
 Reference value :  4.50156e-06
 Reference value :  4.50257e-06
 Reference value :  4.50371e-06
 Reference value :  4.50512e-06
 Reference value :  4.50590e-06
 Reference value :  4.50692e-06
 Reference value :  4.50765e-06
 Reference value :  4.50953e-06
 Reference value :  4.51167e-06
 Reference value :  4.51295e-06
 Reference value :  4.51698e-06
 Reference value :  4.52738e-06
 Reference value :  4.55827e-06
 Reference value :  4.67452e-06
 Reference value :  4.75011e-06
 Reference value :  4.75017e-06
 Reference value :  4.75021e-06
 Reference value :  4.75025e-06
 Reference value :  4.75040e-06
 Reference value :  4.75078e-06
 Reference value :  4.75157e-06
 Reference value :  4.75211e-06
 Reference value :  4.75339e-06
 Reference value :  4.75421e-06
 Reference value :  4.75480e-06
 Reference value :  4.75624e-06
 Reference value :  4.75710e-06
 Reference value :  4.75805e-06
 Reference value :  4.75899e-06
 Reference value :  4.76139e-06
 Reference value :  4.76334e-06
 Reference value :  4.76916e-06
 Reference value :  4.78369e-06
 Reference value :  4.82050e-06
 Reference value :  4.91348e-06
 Reference value :  5.00001e-06
 Reference value :  5.00007e-06
 Reference value :  5.00011e-06
 Reference value :  5.00016e-06
 Reference value :  5.00035e-06
 Reference value :  5.00097e-06
 Reference value :  5.00156e-06
 Reference value :  5.00259e-06
 Reference value :  5.00374e-06
 Reference value :  5.00442e-06
 Reference value :  5.00498e-06
 Reference value :  5.00559e-06
 Reference value :  5.00610e-06
 Reference value :  5.00669e-06
 Reference value :  5.00824e-06
 Reference value :  5.00923e-06
 Reference value :  5.01078e-06
 Reference value :  5.01176e-06
 Reference value :  5.01415e-06
 Reference value :  5.01512e-06
 Reference value :  5.01608e-06
 Reference value :  5.01728e-06
 Reference value :  5.01837e-06
 Reference value :  5.02098e-06
 Reference value :  5.02455e-06
 Reference value :  5.03119e-06
 Reference value :  5.05049e-06
 Reference value :  5.06189e-06
 Reference value :  5.06957e-06
 Reference value :  5.09048e-06
 Reference value :  5.10885e-06
 Reference value :  5.14969e-06
 Reference value :  5.22309e-06
 Reference value :  5.25011e-06
 Reference value :  5.25017e-06
 Reference value :  5.25021e-06
 Reference value :  5.25025e-06
 Reference value :  5.25032e-06
 Reference value :  5.25058e-06
 Reference value :  5.25104e-06
 Reference value :  5.25152e-06
 Reference value :  5.25208e-06
 Reference value :  5.25259e-06
 Reference value :  5.25336e-06
 Reference value :  5.25418e-06
 Reference value :  5.25478e-06
 Reference value :  5.25613e-06
 Reference value :  5.25697e-06
 Reference value :  5.25786e-06
 Reference value :  5.26189e-06
 Reference value :  5.27111e-06
 Reference value :  5.29966e-06
 Reference value :  5.38889e-06
 Reference value :  5.50000e-06
 Reference value :  5.50003e-06
 Reference value :  5.50010e-06
 Reference value :  5.50012e-06
 Reference value :  5.50022e-06
 Reference value :  5.50060e-06
 Reference value :  5.50097e-06
 Reference value :  5.50156e-06
 Reference value :  5.50257e-06
 Reference value :  5.50371e-06
 Reference value :  5.50443e-06
 Reference value :  5.50589e-06
 Reference value :  5.50691e-06
 Reference value :  5.50764e-06
 Reference value :  5.50848e-06
 Reference value :  5.50952e-06
 Reference value :  5.51166e-06
 Reference value :  5.51293e-06
 Reference value :  5.51697e-06
 Reference value :  5.52741e-06
 Reference value :  5.55854e-06
 Reference value :  5.67578e-06
 Reference value :  5.75011e-06
 Reference value :  5.75017e-06
 Reference value :  5.75021e-06
 Reference value :  5.75025e-06
 Reference value :  5.75040e-06
 Reference value :  5.75078e-06
 Reference value :  5.75157e-06
 Reference value :  5.75211e-06
 Reference value :  5.75339e-06
 Reference value :  5.75480e-06
 Reference value :  5.75624e-06
 Reference value :  5.75711e-06
 Reference value :  5.75900e-06
 Reference value :  5.76140e-06
 Reference value :  5.76560e-06
 Reference value :  5.77520e-06
 Reference value :  5.79838e-06
 Reference value :  5.85649e-06
 Reference value :  6.00000e-06
 Reference value :  6.00003e-06
 Reference value :  6.00007e-06
 Reference value :  6.00011e-06
 Reference value :  6.00016e-06
 Reference value :  6.00022e-06
 Reference value :  6.00060e-06
 Reference value :  6.00097e-06
 Reference value :  6.00156e-06
 Reference value :  6.00259e-06
 Reference value :  6.00374e-06
 Reference value :  6.00498e-06
 Reference value :  6.00559e-06
 Reference value :  6.00610e-06
 Reference value :  6.00742e-06
 Reference value :  6.00824e-06
 Reference value :  6.01078e-06
 Reference value :  6.01176e-06
 Reference value :  6.01291e-06
 Reference value :  6.01415e-06
 Reference value :  6.01512e-06
 Reference value :  6.01725e-06
 Reference value :  6.01835e-06
 Reference value :  6.01955e-06
 Reference value :  6.02093e-06
 Reference value :  6.02450e-06
 Reference value :  6.03087e-06
 Reference value :  6.03511e-06
 Reference value :  6.04379e-06
 Reference value :  6.05837e-06
 Reference value :  6.09874e-06
 Reference value :  6.20550e-06
 Reference value :  6.25011e-06
 Reference value :  6.25017e-06
 Reference value :  6.25020e-06
 Reference value :  6.25022e-06
 Reference value :  6.25032e-06
 Reference value :  6.25058e-06
 Reference value :  6.25104e-06
 Reference value :  6.25208e-06
 Reference value :  6.25336e-06
 Reference value :  6.25418e-06
 Reference value :  6.25478e-06
 Reference value :  6.25613e-06
 Reference value :  6.25697e-06
 Reference value :  6.25962e-06
 Reference value :  6.26533e-06
 Reference value :  6.28193e-06
 Reference value :  6.33204e-06
 Reference value :  6.48732e-06
 Reference value :  6.50001e-06
 Reference value :  6.50007e-06
 Reference value :  6.50010e-06
 Reference value :  6.50012e-06
 Reference value :  6.50022e-06
 Reference value :  6.50060e-06
 Reference value :  6.50097e-06
 Reference value :  6.50156e-06
 Reference value :  6.50212e-06
 Reference value :  6.50257e-06
 Reference value :  6.50371e-06
 Reference value :  6.50443e-06
 Reference value :  6.50512e-06
 Reference value :  6.50589e-06
 Reference value :  6.50691e-06
 Reference value :  6.50764e-06
 Reference value :  6.50848e-06
 Reference value :  6.50952e-06
 Reference value :  6.51166e-06
 Reference value :  6.51293e-06
 Reference value :  6.51696e-06
 Reference value :  6.52736e-06
 Reference value :  6.55833e-06
 Reference value :  6.67492e-06
 Reference value :  6.75011e-06
 Reference value :  6.75017e-06
 Reference value :  6.75020e-06
 Reference value :  6.75022e-06
 Reference value :  6.75032e-06
 Reference value :  6.75058e-06
 Reference value :  6.75105e-06
 Reference value :  6.75157e-06
 Reference value :  6.75210e-06
 Reference value :  6.75339e-06
 Reference value :  6.75421e-06
 Reference value :  6.75480e-06
 Reference value :  6.75549e-06
 Reference value :  6.75624e-06
 Reference value :  6.75711e-06
 Reference value :  6.75900e-06
 Reference value :  6.76140e-06
 Reference value :  6.76560e-06
 Reference value :  6.77519e-06
 Reference value :  6.79836e-06
 Reference value :  6.85639e-06
 Reference value :  7.00000e-06
 Reference value :  7.00003e-06
 Reference value :  7.00010e-06
 Reference value :  7.00012e-06
 Reference value :  7.00022e-06
 Reference value :  7.00060e-06
 Reference value :  7.00156e-06
 Reference value :  7.00259e-06
 Reference value :  7.00315e-06
 Reference value :  7.00374e-06
 Reference value :  7.00442e-06
 Reference value :  7.00498e-06
 Reference value :  7.00610e-06
 Reference value :  7.00742e-06
 Reference value :  7.00923e-06
 Reference value :  7.01177e-06
 Reference value :  7.01292e-06
 Reference value :  7.01415e-06
 Reference value :  7.01512e-06
 Reference value :  7.01724e-06
 Reference value :  7.01953e-06
 Reference value :  7.02216e-06
 Reference value :  7.02418e-06
 Reference value :  7.02913e-06
 Reference value :  7.04919e-06
 Reference value :  7.10427e-06
 Reference value :  7.17435e-06
 Reference value :  7.25011e-06
 Reference value :  7.25017e-06
 Reference value :  7.25021e-06
 Reference value :  7.25025e-06
 Reference value :  7.25040e-06
 Reference value :  7.25075e-06
 Reference value :  7.25152e-06
 Reference value :  7.25208e-06
 Reference value :  7.25258e-06
 Reference value :  7.25418e-06
 Reference value :  7.25478e-06
 Reference value :  7.25613e-06
 Reference value :  7.25697e-06
 Reference value :  7.25962e-06
 Reference value :  7.26533e-06
 Reference value :  7.28190e-06
 Reference value :  7.38762e-06
 Reference value :  7.50000e-06
 Reference value :  7.50001e-06
 Reference value :  7.50007e-06
 Reference value :  7.50011e-06
 Reference value :  7.50016e-06
 Reference value :  7.50035e-06
 Reference value :  7.50060e-06
 Reference value :  7.50156e-06
 Reference value :  7.50212e-06
 Reference value :  7.50257e-06
 Reference value :  7.50371e-06
 Reference value :  7.50512e-06
 Reference value :  7.50691e-06
 Reference value :  7.50764e-06
 Reference value :  7.50952e-06
 Reference value :  7.51166e-06
 Reference value :  7.51292e-06
 Reference value :  7.51695e-06
 Reference value :  7.52732e-06
 Reference value :  7.53881e-06
 Reference value :  7.59686e-06
 Reference value :  7.75010e-06
 Reference value :  7.75011e-06
 Reference value :  7.75013e-06
 Reference value :  7.75017e-06
 Reference value :  7.75021e-06
 Reference value :  7.75025e-06
 Reference value :  7.75040e-06
 Reference value :  7.75078e-06
 Reference value :  7.75157e-06
 Reference value :  7.75210e-06
 Reference value :  7.75339e-06
 Reference value :  7.75421e-06
 Reference value :  7.75480e-06
 Reference value :  7.75549e-06
 Reference value :  7.75624e-06
 Reference value :  7.75711e-06
 Reference value :  7.75900e-06
 Reference value :  7.76140e-06
 Reference value :  7.76560e-06
 Reference value :  7.77519e-06
 Reference value :  7.79834e-06
 Reference value :  7.85630e-06
 Reference value :  8.00000e-06
 Reference value :  8.00003e-06
 Reference value :  8.00010e-06
 Reference value :  8.00012e-06
 Reference value :  8.00022e-06
 Reference value :  8.00060e-06
 Reference value :  8.00097e-06
 Reference value :  8.00156e-06
 Reference value :  8.00259e-06
 Reference value :  8.00315e-06
 Reference value :  8.00374e-06
 Reference value :  8.00497e-06
 Reference value :  8.00558e-06
 Reference value :  8.00609e-06
 Reference value :  8.00669e-06
 Reference value :  8.00823e-06
 Reference value :  8.00907e-06
 Reference value :  8.00996e-06
 Reference value :  8.01078e-06
 Reference value :  8.01282e-06
 Reference value :  8.01610e-06
 Reference value :  8.01738e-06
 Reference value :  8.01836e-06
 Reference value :  8.02157e-06
 Reference value :  8.02938e-06
 Reference value :  8.05297e-06
 Reference value :  8.12059e-06
 Reference value :  8.25010e-06
 Reference value :  8.25011e-06
 Reference value :  8.25017e-06
 Reference value :  8.25021e-06
 Reference value :  8.25026e-06
 Reference value :  8.25044e-06
 Reference value :  8.25081e-06
 Reference value :  8.25167e-06
 Reference value :  8.25219e-06
 Reference value :  8.25350e-06
 Reference value :  8.25438e-06
 Reference value :  8.25531e-06
 Reference value :  8.25628e-06
 Reference value :  8.25896e-06
 Reference value :  8.26357e-06
 Reference value :  8.27419e-06
 Reference value :  8.30608e-06
 Reference value :  8.42787e-06
 Reference value :  8.50000e-06
 Reference value :  8.50000e-06
 Reference value :  8.50000e-06
 Reference value :  8.50000e-06
 Reference value :  8.50000e-06
 Reference value :  8.50001e-06
 Reference value :  8.50004e-06
 Reference value :  8.50010e-06
 Reference value :  8.50011e-06
 Reference value :  8.50014e-06
 Reference value :  8.50027e-06
 Reference value :  8.50078e-06
 Reference value :  8.50129e-06
 Reference value :  8.50191e-06
 Reference value :  8.50245e-06
 Reference value :  8.50303e-06
 Reference value :  8.50368e-06
 Reference value :  8.50443e-06
 Reference value :  8.50511e-06
 Reference value :  8.50569e-06
 Reference value :  8.50631e-06
 Reference value :  8.50705e-06
 Reference value :  8.50785e-06
 Reference value :  8.51130e-06
 Reference value :  8.52198e-06
 Reference value :  8.52855e-06
 Reference value :  8.53345e-06
 Reference value :  8.53707e-06
 Reference value :  8.54401e-06
 Reference value :  8.54745e-06
 Reference value :  8.55316e-06
 Reference value :  8.56034e-06
 Reference value :  8.57381e-06
 Reference value :  8.60195e-06
 Reference value :  8.66887e-06
 Reference value :  8.75010e-06
 Reference value :  8.75013e-06
 Reference value :  8.75020e-06
 Reference value :  8.75022e-06
 Reference value :  8.75032e-06
 Reference value :  8.75062e-06
 Reference value :  8.75127e-06
 Reference value :  8.75176e-06
 Reference value :  8.75284e-06
 Reference value :  8.75364e-06
 Reference value :  8.75420e-06
 Reference value :  8.75484e-06
 Reference value :  8.75549e-06
 Reference value :  8.75618e-06
 Reference value :  8.75712e-06
 Reference value :  8.75855e-06
 Reference value :  8.76017e-06
 Reference value :  8.76658e-06
 Reference value :  8.78788e-06
 Reference value :  8.87307e-06
 Reference value :  8.98665e-06
 Reference value :  9.00001e-06
 Reference value :  9.00003e-06
 Reference value :  9.00010e-06
 Reference value :  9.00011e-06
 Reference value :  9.00012e-06
 Reference value :  9.00022e-06
 Reference value :  9.00052e-06
 Reference value :  9.00086e-06
 Reference value :  9.00130e-06
 Reference value :  9.00176e-06
 Reference value :  9.00221e-06
 Reference value :  9.00331e-06
 Reference value :  9.00404e-06
 Reference value :  9.00484e-06
 Reference value :  9.00675e-06
 Reference value :  9.00807e-06
 Reference value :  9.00962e-06
 Reference value :  9.01091e-06
 Reference value :  9.01227e-06
 Reference value :  9.01392e-06
 Reference value :  9.01573e-06
 Reference value :  9.01768e-06
 Reference value :  9.01987e-06
 Reference value :  9.02209e-06
 Reference value :  9.03196e-06
 Reference value :  9.05699e-06
 Reference value :  9.12519e-06
 Reference value :  9.25010e-06
 Reference value :  9.25013e-06
 Reference value :  9.25017e-06
 Reference value :  9.25021e-06
 Reference value :  9.25025e-06
 Reference value :  9.25044e-06
 Reference value :  9.25085e-06
 Reference value :  9.25175e-06
 Reference value :  9.25226e-06
 Reference value :  9.25282e-06
 Reference value :  9.25359e-06
 Reference value :  9.25415e-06
 Reference value :  9.25480e-06
 Reference value :  9.25538e-06
 Reference value :  9.25687e-06
 Reference value :  9.25858e-06
 Reference value :  9.25959e-06
 Reference value :  9.26067e-06
 Reference value :  9.26451e-06
 Reference value :  9.27215e-06
 Reference value :  9.28835e-06
 Reference value :  9.32393e-06
 Reference value :  9.40352e-06
 Reference value :  9.50000e-06
 Reference value :  9.50003e-06
 Reference value :  9.50010e-06
 Reference value :  9.50012e-06
 Reference value :  9.50022e-06
 Reference value :  9.50035e-06
 Reference value :  9.50052e-06
 Reference value :  9.50130e-06
 Reference value :  9.50176e-06
 Reference value :  9.50223e-06
 Reference value :  9.50276e-06
 Reference value :  9.50402e-06
 Reference value :  9.50457e-06
 Reference value :  9.50520e-06
 Reference value :  9.50581e-06
 Reference value :  9.50649e-06
 Reference value :  9.50806e-06
 Reference value :  9.51047e-06
 Reference value :  9.51146e-06
 Reference value :  9.51255e-06
 Reference value :  9.51355e-06
 Reference value :  9.51468e-06
 Reference value :  9.51543e-06
 Reference value :  9.51625e-06
 Reference value :  9.51734e-06
 Reference value :  9.51846e-06
 Reference value :  9.52080e-06
 Reference value :  9.52418e-06
 Reference value :  9.53179e-06
 Reference value :  9.55330e-06
 Reference value :  9.61631e-06
 Reference value :  9.75010e-06
 Reference value :  9.75013e-06
 Reference value :  9.75020e-06
 Reference value :  9.75022e-06
 Reference value :  9.75025e-06
 Reference value :  9.75044e-06
 Reference value :  9.75085e-06
 Reference value :  9.75175e-06
 Reference value :  9.75283e-06
 Reference value :  9.75363e-06
 Reference value :  9.75419e-06
 Reference value :  9.75546e-06
 Reference value :  9.75708e-06
 Reference value :  9.75835e-06
 Reference value :  9.76266e-06
 Reference value :  9.77307e-06
 Reference value :  9.81471e-06
 Reference value :  9.98127e-06
 Reference value :  1.00000e-05
 Reference value :  1.00001e-05
 Reference value :  1.00001e-05
 Reference value :  1.00002e-05
 Reference value :  1.00003e-05
 Reference value :  1.00005e-05
 Reference value :  1.00013e-05
 Reference value :  1.00022e-05
 Reference value :  1.00033e-05
 Reference value :  1.00040e-05
 Reference value :  1.00048e-05
 Reference value :  1.00056e-05
 Reference value :  1.00067e-05
 Reference value :  1.00076e-05
 Reference value :  1.00095e-05
 Reference value :  1.00118e-05
 Reference value :  1.00154e-05
 Reference value :  1.00254e-05
 Reference value :  1.00592e-05
 Reference value :  1.01926e-05
 Reference value :  1.02501e-05
 Reference value :  1.02502e-05
 Reference value :  1.02502e-05
 Reference value :  1.02503e-05
 Reference value :  1.02503e-05
 Reference value :  1.02506e-05
 Reference value :  1.02509e-05
 Reference value :  1.02518e-05
 Reference value :  1.02523e-05
 Reference value :  1.02528e-05
 Reference value :  1.02536e-05
 Reference value :  1.02542e-05
 Reference value :  1.02548e-05
 Reference value :  1.02554e-05
 Reference value :  1.02569e-05
 Reference value :  1.02578e-05
 Reference value :  1.02587e-05
 Reference value :  1.02611e-05
 Reference value :  1.02652e-05
 Reference value :  1.02745e-05
 Reference value :  1.02968e-05
 Reference value :  1.03529e-05
 Reference value :  1.05000e-05
 Reference value :  1.05000e-05
 Reference value :  1.05001e-05
 Reference value :  1.05001e-05
 Reference value :  1.05001e-05
 Reference value :  1.05002e-05
 Reference value :  1.05002e-05
 Reference value :  1.05003e-05
 Reference value :  1.05005e-05
 Reference value :  1.05009e-05
 Reference value :  1.05013e-05
 Reference value :  1.05018e-05
 Reference value :  1.05022e-05
 Reference value :  1.05028e-05
 Reference value :  1.05040e-05
 Reference value :  1.05046e-05
 Reference value :  1.05052e-05
 Reference value :  1.05058e-05
 Reference value :  1.05065e-05
 Reference value :  1.05081e-05
 Reference value :  1.05091e-05
 Reference value :  1.05105e-05
 Reference value :  1.05115e-05
 Reference value :  1.05125e-05
 Reference value :  1.05136e-05
 Reference value :  1.05147e-05
 Reference value :  1.05154e-05
 Reference value :  1.05163e-05
 Reference value :  1.05173e-05
 Reference value :  1.05195e-05
 Reference value :  1.05208e-05
 Reference value :  1.05242e-05
 Reference value :  1.05319e-05
 Reference value :  1.05537e-05
 Reference value :  1.06132e-05
 Reference value :  1.07501e-05
 Reference value :  1.07501e-05
 Reference value :  1.07502e-05
 Reference value :  1.07502e-05
 Reference value :  1.07503e-05
 Reference value :  1.07506e-05
 Reference value :  1.07513e-05
 Reference value :  1.07517e-05
 Reference value :  1.07528e-05
 Reference value :  1.07536e-05
 Reference value :  1.07542e-05
 Reference value :  1.07548e-05
 Reference value :  1.07555e-05
 Reference value :  1.07561e-05
 Reference value :  1.07583e-05
 Reference value :  1.07600e-05
 Reference value :  1.07661e-05
 Reference value :  1.07870e-05
 Reference value :  1.08702e-05
 Reference value :  1.10000e-05
 Reference value :  1.10000e-05
 Reference value :  1.10001e-05
 Reference value :  1.10001e-05
 Reference value :  1.10002e-05
 Reference value :  1.10005e-05
 Reference value :  1.10009e-05
 Reference value :  1.10013e-05
 Reference value :  1.10018e-05
 Reference value :  1.10022e-05
 Reference value :  1.10033e-05
 Reference value :  1.10040e-05
 Reference value :  1.10048e-05
 Reference value :  1.10056e-05
 Reference value :  1.10067e-05
 Reference value :  1.10076e-05
 Reference value :  1.10095e-05
 Reference value :  1.10118e-05
 Reference value :  1.10154e-05
 Reference value :  1.10254e-05
 Reference value :  1.10592e-05
 Reference value :  1.11926e-05
 Reference value :  1.12501e-05
 Reference value :  1.12502e-05
 Reference value :  1.12502e-05
 Reference value :  1.12503e-05
 Reference value :  1.12504e-05
 Reference value :  1.12509e-05
 Reference value :  1.12518e-05
 Reference value :  1.12523e-05
 Reference value :  1.12528e-05
 Reference value :  1.12536e-05
 Reference value :  1.12542e-05
 Reference value :  1.12548e-05
 Reference value :  1.12554e-05
 Reference value :  1.12560e-05
 Reference value :  1.12569e-05
 Reference value :  1.12587e-05
 Reference value :  1.12611e-05
 Reference value :  1.12652e-05
 Reference value :  1.12745e-05
 Reference value :  1.12968e-05
 Reference value :  1.13529e-05
 Reference value :  1.15000e-05
 Reference value :  1.15000e-05
 Reference value :  1.15001e-05
 Reference value :  1.15001e-05
 Reference value :  1.15002e-05
 Reference value :  1.15005e-05
 Reference value :  1.15013e-05
 Reference value :  1.15018e-05
 Reference value :  1.15022e-05
 Reference value :  1.15034e-05
 Reference value :  1.15040e-05
 Reference value :  1.15046e-05
 Reference value :  1.15052e-05
 Reference value :  1.15058e-05
 Reference value :  1.15065e-05
 Reference value :  1.15081e-05
 Reference value :  1.15105e-05
 Reference value :  1.15115e-05
 Reference value :  1.15126e-05
 Reference value :  1.15136e-05
 Reference value :  1.15147e-05
 Reference value :  1.15154e-05
 Reference value :  1.15163e-05
 Reference value :  1.15174e-05
 Reference value :  1.15185e-05
 Reference value :  1.15195e-05
 Reference value :  1.15208e-05
 Reference value :  1.15243e-05
 Reference value :  1.15321e-05
 Reference value :  1.15543e-05
 Reference value :  1.16188e-05
 Reference value :  1.17207e-05
 Reference value :  1.17501e-05
 Reference value :  1.17502e-05
 Reference value :  1.17502e-05
 Reference value :  1.17503e-05
 Reference value :  1.17504e-05
 Reference value :  1.17506e-05
 Reference value :  1.17513e-05
 Reference value :  1.17518e-05
 Reference value :  1.17523e-05
 Reference value :  1.17528e-05
 Reference value :  1.17536e-05
 Reference value :  1.17542e-05
 Reference value :  1.17548e-05
 Reference value :  1.17555e-05
 Reference value :  1.17571e-05
 Reference value :  1.17600e-05
 Reference value :  1.17662e-05
 Reference value :  1.17872e-05
 Reference value :  1.18709e-05
 Reference value :  1.20000e-05
 Reference value :  1.20000e-05
 Reference value :  1.20001e-05
 Reference value :  1.20001e-05
 Reference value :  1.20002e-05
 Reference value :  1.20005e-05
 Reference value :  1.20013e-05
 Reference value :  1.20022e-05
 Reference value :  1.20027e-05
 Reference value :  1.20033e-05
 Reference value :  1.20040e-05
 Reference value :  1.20056e-05
 Reference value :  1.20067e-05
 Reference value :  1.20076e-05
 Reference value :  1.20095e-05
 Reference value :  1.20118e-05
 Reference value :  1.20154e-05
 Reference value :  1.20254e-05
 Reference value :  1.20592e-05
 Reference value :  1.21927e-05
 Reference value :  1.22501e-05
 Reference value :  1.22502e-05
 Reference value :  1.22502e-05
 Reference value :  1.22503e-05
 Reference value :  1.22504e-05
 Reference value :  1.22509e-05
 Reference value :  1.22518e-05
 Reference value :  1.22523e-05
 Reference value :  1.22536e-05
 Reference value :  1.22542e-05
 Reference value :  1.22554e-05
 Reference value :  1.22569e-05
 Reference value :  1.22587e-05
 Reference value :  1.22599e-05
 Reference value :  1.22629e-05
 Reference value :  1.22685e-05
 Reference value :  1.22828e-05
 Reference value :  1.23186e-05
 Reference value :  1.24105e-05
 Reference value :  1.25000e-05
 Reference value :  1.25001e-05
 Reference value :  1.25001e-05
 Reference value :  1.25002e-05
 Reference value :  1.25003e-05
 Reference value :  1.25005e-05
 Reference value :  1.25013e-05
 Reference value :  1.25022e-05
 Reference value :  1.25034e-05
 Reference value :  1.25040e-05
 Reference value :  1.25046e-05
 Reference value :  1.25052e-05
 Reference value :  1.25058e-05
 Reference value :  1.25065e-05
 Reference value :  1.25081e-05
 Reference value :  1.25105e-05
 Reference value :  1.25115e-05
 Reference value :  1.25126e-05
 Reference value :  1.25139e-05
 Reference value :  1.25164e-05
 Reference value :  1.25177e-05
 Reference value :  1.25188e-05
 Reference value :  1.25200e-05
 Reference value :  1.25230e-05
 Reference value :  1.25280e-05
 Reference value :  1.25419e-05
 Reference value :  1.25579e-05
 Reference value :  1.26080e-05
 Reference value :  1.26212e-05
 Reference value :  1.26384e-05
 Reference value :  1.26573e-05
 Reference value :  1.27470e-05
 Reference value :  1.27501e-05
 Reference value :  1.27501e-05
 Reference value :  1.27502e-05
 Reference value :  1.27502e-05
 Reference value :  1.27503e-05
 Reference value :  1.27503e-05
 Reference value :  1.27506e-05
 Reference value :  1.27511e-05
 Reference value :  1.27516e-05
 Reference value :  1.27521e-05
 Reference value :  1.27527e-05
 Reference value :  1.27534e-05
 Reference value :  1.27542e-05
 Reference value :  1.27548e-05
 Reference value :  1.27555e-05
 Reference value :  1.27561e-05
 Reference value :  1.27570e-05
 Reference value :  1.27596e-05
 Reference value :  1.27654e-05
 Reference value :  1.27823e-05
 Reference value :  1.28341e-05
 Reference value :  1.29963e-05
 Reference value :  1.30000e-05
 Reference value :  1.30001e-05
 Reference value :  1.30001e-05
 Reference value :  1.30001e-05
 Reference value :  1.30002e-05
 Reference value :  1.30003e-05
 Reference value :  1.30006e-05
 Reference value :  1.30010e-05
 Reference value :  1.30016e-05
 Reference value :  1.30026e-05
 Reference value :  1.30037e-05
 Reference value :  1.30044e-05
 Reference value :  1.30051e-05
 Reference value :  1.30059e-05
 Reference value :  1.30069e-05
 Reference value :  1.30076e-05
 Reference value :  1.30085e-05
 Reference value :  1.30095e-05
 Reference value :  1.30106e-05
 Reference value :  1.30129e-05
 Reference value :  1.30169e-05
 Reference value :  1.30273e-05
 Reference value :  1.30580e-05
 Reference value :  1.31737e-05
 Reference value :  1.32501e-05
 Reference value :  1.32502e-05
 Reference value :  1.32502e-05
 Reference value :  1.32503e-05
 Reference value :  1.32504e-05
 Reference value :  1.32508e-05
 Reference value :  1.32516e-05
 Reference value :  1.32521e-05
 Reference value :  1.32534e-05
 Reference value :  1.32548e-05
 Reference value :  1.32562e-05
 Reference value :  1.32571e-05
 Reference value :  1.32590e-05
 Reference value :  1.32601e-05
 Reference value :  1.32633e-05
 Reference value :  1.32692e-05
 Reference value :  1.32837e-05
 Reference value :  1.33206e-05
 Reference value :  1.34138e-05
 Reference value :  1.35000e-05
 Reference value :  1.35001e-05
 Reference value :  1.35001e-05
 Reference value :  1.35001e-05
 Reference value :  1.35002e-05
 Reference value :  1.35003e-05
 Reference value :  1.35010e-05
 Reference value :  1.35016e-05
 Reference value :  1.35026e-05
 Reference value :  1.35037e-05
 Reference value :  1.35044e-05
 Reference value :  1.35050e-05
 Reference value :  1.35056e-05
 Reference value :  1.35061e-05
 Reference value :  1.35067e-05
 Reference value :  1.35082e-05
 Reference value :  1.35092e-05
 Reference value :  1.35108e-05
 Reference value :  1.35118e-05
 Reference value :  1.35141e-05
 Reference value :  1.35151e-05
 Reference value :  1.35173e-05
 Reference value :  1.35184e-05
 Reference value :  1.35210e-05
 Reference value :  1.35245e-05
 Reference value :  1.35311e-05
 Reference value :  1.35500e-05
 Reference value :  1.35618e-05
 Reference value :  1.35694e-05
 Reference value :  1.35901e-05
 Reference value :  1.36081e-05
 Reference value :  1.36500e-05
 Reference value :  1.37125e-05
 Reference value :  1.37501e-05
 Reference value :  1.37502e-05
 Reference value :  1.37502e-05
 Reference value :  1.37503e-05
 Reference value :  1.37504e-05
 Reference value :  1.37506e-05
 Reference value :  1.37510e-05
 Reference value :  1.37521e-05
 Reference value :  1.37526e-05
 Reference value :  1.37534e-05
 Reference value :  1.37542e-05
 Reference value :  1.37548e-05
 Reference value :  1.37554e-05
 Reference value :  1.37561e-05
 Reference value :  1.37569e-05
 Reference value :  1.37596e-05
 Reference value :  1.37652e-05
 Reference value :  1.37815e-05
 Reference value :  1.38309e-05
 Reference value :  1.39848e-05
 Reference value :  1.40000e-05
 Reference value :  1.40000e-05
 Reference value :  1.40001e-05
 Reference value :  1.40001e-05
 Reference value :  1.40001e-05
 Reference value :  1.40001e-05
 Reference value :  1.40002e-05
 Reference value :  1.40003e-05
 Reference value :  1.40006e-05
 Reference value :  1.40010e-05
 Reference value :  1.40016e-05
 Reference value :  1.40021e-05
 Reference value :  1.40026e-05
 Reference value :  1.40037e-05
 Reference value :  1.40044e-05
 Reference value :  1.40059e-05
 Reference value :  1.40069e-05
 Reference value :  1.40076e-05
 Reference value :  1.40085e-05
 Reference value :  1.40095e-05
 Reference value :  1.40116e-05
 Reference value :  1.40129e-05
 Reference value :  1.40169e-05
 Reference value :  1.40274e-05
 Reference value :  1.40586e-05
 Reference value :  1.41761e-05
 Reference value :  1.42501e-05
 Reference value :  1.42502e-05
 Reference value :  1.42502e-05
 Reference value :  1.42502e-05
 Reference value :  1.42503e-05
 Reference value :  1.42504e-05
 Reference value :  1.42508e-05
 Reference value :  1.42516e-05
 Reference value :  1.42521e-05
 Reference value :  1.42527e-05
 Reference value :  1.42534e-05
 Reference value :  1.42542e-05
 Reference value :  1.42548e-05
 Reference value :  1.42555e-05
 Reference value :  1.42571e-05
 Reference value :  1.42580e-05
 Reference value :  1.42601e-05
 Reference value :  1.42633e-05
 Reference value :  1.42656e-05
 Reference value :  1.42692e-05
 Reference value :  1.42838e-05
 Reference value :  1.42984e-05
 Reference value :  1.43208e-05
 Reference value :  1.43566e-05
 Reference value :  1.44142e-05
 Reference value :  1.45000e-05
 Reference value :  1.45000e-05
 Reference value :  1.45001e-05
 Reference value :  1.45001e-05
 Reference value :  1.45001e-05
 Reference value :  1.45002e-05
 Reference value :  1.45003e-05
 Reference value :  1.45006e-05
 Reference value :  1.45010e-05
 Reference value :  1.45016e-05
 Reference value :  1.45021e-05
 Reference value :  1.45026e-05
 Reference value :  1.45032e-05
 Reference value :  1.45037e-05
 Reference value :  1.45044e-05
 Reference value :  1.45050e-05
 Reference value :  1.45056e-05
 Reference value :  1.45061e-05
 Reference value :  1.45067e-05
 Reference value :  1.45074e-05
 Reference value :  1.45082e-05
 Reference value :  1.45092e-05
 Reference value :  1.45108e-05
 Reference value :  1.45118e-05
 Reference value :  1.45129e-05
 Reference value :  1.45141e-05
 Reference value :  1.45151e-05
 Reference value :  1.45161e-05
 Reference value :  1.45173e-05
 Reference value :  1.45184e-05
 Reference value :  1.45195e-05
 Reference value :  1.45209e-05
 Reference value :  1.45222e-05
 Reference value :  1.45245e-05
 Reference value :  1.45266e-05
 Reference value :  1.45309e-05
 Reference value :  1.45351e-05
 Reference value :  1.45438e-05
 Reference value :  1.45584e-05
 Reference value :  1.45988e-05
 Reference value :  1.46496e-05
 Reference value :  1.47102e-05
 Reference value :  1.47501e-05
 Reference value :  1.47501e-05
 Reference value :  1.47502e-05
 Reference value :  1.47502e-05
 Reference value :  1.47502e-05
 Reference value :  1.47502e-05
 Reference value :  1.47503e-05
 Reference value :  1.47503e-05
 Reference value :  1.47504e-05
 Reference value :  1.47506e-05
 Reference value :  1.47507e-05
 Reference value :  1.47510e-05
 Reference value :  1.47515e-05
 Reference value :  1.47521e-05
 Reference value :  1.47526e-05
 Reference value :  1.47534e-05
 Reference value :  1.47542e-05
 Reference value :  1.47548e-05
 Reference value :  1.47554e-05
 Reference value :  1.47561e-05
 Reference value :  1.47569e-05
 Reference value :  1.47578e-05
 Reference value :  1.47596e-05
 Reference value :  1.47652e-05
 Reference value :  1.47708e-05
 Reference value :  1.47815e-05
 Reference value :  1.47988e-05
 Reference value :  1.48866e-05
 Reference value :  1.50000e-05
 Reference value :  1.50000e-05
 Reference value :  1.50000e-05
 Reference value :  1.50001e-05
 Reference value :  1.50001e-05
 Reference value :  1.50001e-05
 Reference value :  1.50002e-05
 Reference value :  1.50003e-05
 Reference value :  1.50006e-05
 Reference value :  1.50010e-05
 Reference value :  1.50016e-05
 Reference value :  1.50021e-05
 Reference value :  1.50026e-05
 Reference value :  1.50031e-05
 Reference value :  1.50037e-05
 Reference value :  1.50044e-05
 Reference value :  1.50051e-05
 Reference value :  1.50059e-05
 Reference value :  1.50069e-05
 Reference value :  1.50076e-05
 Reference value :  1.50085e-05
 Reference value :  1.50095e-05
 Reference value :  1.50106e-05
 Reference value :  1.50116e-05
 Reference value :  1.50129e-05
 Reference value :  1.50169e-05
 Reference value :  1.50274e-05
 Reference value :  1.50390e-05
 Reference value :  1.50586e-05
 Reference value :  1.51762e-05
 Reference value :  1.52501e-05
 Reference value :  1.52501e-05
 Reference value :  1.52502e-05
 Reference value :  1.52502e-05
 Reference value :  1.52502e-05
 Reference value :  1.52503e-05
 Reference value :  1.52504e-05
 Reference value :  1.52508e-05
 Reference value :  1.52511e-05
 Reference value :  1.52516e-05
 Reference value :  1.52521e-05
 Reference value :  1.52527e-05
 Reference value :  1.52542e-05
 Reference value :  1.52548e-05
 Reference value :  1.52555e-05
 Reference value :  1.52562e-05
 Reference value :  1.52571e-05
 Reference value :  1.52580e-05
 Reference value :  1.52590e-05
 Reference value :  1.52601e-05
 Reference value :  1.52614e-05
 Reference value :  1.52633e-05
 Reference value :  1.52656e-05
 Reference value :  1.52692e-05
 Reference value :  1.52752e-05
 Reference value :  1.52838e-05
 Reference value :  1.52984e-05
 Reference value :  1.53207e-05
 Reference value :  1.53565e-05
 Reference value :  1.54141e-05
 Reference value :  1.55000e-05
 Reference value :  1.55014e-05
 Reference value :  1.55041e-05
 Reference value :  1.55055e-05
 Reference value :  1.55068e-05
 Reference value :  1.55080e-05
 Reference value :  1.55092e-05
 Reference value :  1.55107e-05
 Reference value :  1.55117e-05
 Reference value :  1.55129e-05
 Reference value :  1.55142e-05
 Reference value :  1.55155e-05
 Reference value :  1.55169e-05
 Reference value :  1.55181e-05
 Reference value :  1.55192e-05
 Reference value :  1.55205e-05
 Reference value :  1.55218e-05
 Reference value :  1.55235e-05
 Reference value :  1.55254e-05
 Reference value :  1.55280e-05
 Reference value :  1.55308e-05
 Reference value :  1.55426e-05
 Reference value :  1.55568e-05
 Reference value :  1.55789e-05
 Reference value :  1.56196e-05
 Reference value :  1.56968e-05
 Reference value :  1.57501e-05
 Reference value :  1.57501e-05
 Reference value :  1.57501e-05
 Reference value :  1.57502e-05
 Reference value :  1.57502e-05
 Reference value :  1.57502e-05
 Reference value :  1.57503e-05
 Reference value :  1.57504e-05
 Reference value :  1.57506e-05
 Reference value :  1.57508e-05
 Reference value :  1.57510e-05
 Reference value :  1.57513e-05
 Reference value :  1.57516e-05
 Reference value :  1.57521e-05
 Reference value :  1.57527e-05
 Reference value :  1.57532e-05
 Reference value :  1.57541e-05
 Reference value :  1.57547e-05
 Reference value :  1.57554e-05
 Reference value :  1.57561e-05
 Reference value :  1.57570e-05
 Reference value :  1.57578e-05
 Reference value :  1.57596e-05
 Reference value :  1.57619e-05
 Reference value :  1.57712e-05
 Reference value :  1.58001e-05
 Reference value :  1.58332e-05
 Reference value :  1.59984e-05
 Reference value :  1.60000e-05
 Reference value :  1.60000e-05
 Reference value :  1.60000e-05
 Reference value :  1.60001e-05
 Reference value :  1.60001e-05
 Reference value :  1.60001e-05
 Reference value :  1.60001e-05
 Reference value :  1.60002e-05
 Reference value :  1.60003e-05
 Reference value :  1.60006e-05
 Reference value :  1.60010e-05
 Reference value :  1.60016e-05
 Reference value :  1.60021e-05
 Reference value :  1.60026e-05
 Reference value :  1.60031e-05
 Reference value :  1.60037e-05
 Reference value :  1.60044e-05
 Reference value :  1.60051e-05
 Reference value :  1.60059e-05
 Reference value :  1.60069e-05
 Reference value :  1.60076e-05
 Reference value :  1.60085e-05
 Reference value :  1.60095e-05
 Reference value :  1.60106e-05
 Reference value :  1.60117e-05
 Reference value :  1.60129e-05
 Reference value :  1.60143e-05
 Reference value :  1.60207e-05
 Reference value :  1.60387e-05
 Reference value :  1.60961e-05
 Reference value :  1.61728e-05
 Reference value :  1.62501e-05
 Reference value :  1.62501e-05
 Reference value :  1.62502e-05
 Reference value :  1.62502e-05
 Reference value :  1.62502e-05
 Reference value :  1.62502e-05
 Reference value :  1.62503e-05
 Reference value :  1.62504e-05
 Reference value :  1.62506e-05
 Reference value :  1.62508e-05
 Reference value :  1.62511e-05
 Reference value :  1.62516e-05
 Reference value :  1.62521e-05
 Reference value :  1.62527e-05
 Reference value :  1.62534e-05
 Reference value :  1.62542e-05
 Reference value :  1.62548e-05
 Reference value :  1.62555e-05
 Reference value :  1.62562e-05
 Reference value :  1.62571e-05
 Reference value :  1.62580e-05
 Reference value :  1.62590e-05
 Reference value :  1.62601e-05
 Reference value :  1.62614e-05
 Reference value :  1.62633e-05
 Reference value :  1.62691e-05
 Reference value :  1.62751e-05
 Reference value :  1.62982e-05
 Reference value :  1.63203e-05
 Reference value :  1.63559e-05
 Reference value :  1.64131e-05
 Reference value :  1.65000e-05
 Reference value :  1.65000e-05
 Reference value :  1.65000e-05
 Reference value :  1.65001e-05
 Reference value :  1.65001e-05
 Reference value :  1.65001e-05
 Reference value :  1.65001e-05
 Reference value :  1.65002e-05
 Reference value :  1.65003e-05
 Reference value :  1.65006e-05
 Reference value :  1.65010e-05
 Reference value :  1.65016e-05
 Reference value :  1.65021e-05
 Reference value :  1.65026e-05
 Reference value :  1.65032e-05
 Reference value :  1.65037e-05
 Reference value :  1.65044e-05
 Reference value :  1.65050e-05
 Reference value :  1.65056e-05
 Reference value :  1.65061e-05
 Reference value :  1.65067e-05
 Reference value :  1.65074e-05
 Reference value :  1.65082e-05
 Reference value :  1.65091e-05
 Reference value :  1.65100e-05
 Reference value :  1.65108e-05
 Reference value :  1.65118e-05
 Reference value :  1.65128e-05
 Reference value :  1.65139e-05
 Reference value :  1.65161e-05
 Reference value :  1.65174e-05
 Reference value :  1.65184e-05
 Reference value :  1.65216e-05
 Reference value :  1.65246e-05
 Reference value :  1.65384e-05
 Reference value :  1.65530e-05
 Reference value :  1.65767e-05
 Reference value :  1.66206e-05
 Reference value :  1.66941e-05
 Reference value :  1.67501e-05
 Reference value :  1.67501e-05
 Reference value :  1.67502e-05
 Reference value :  1.67502e-05
 Reference value :  1.67502e-05
 Reference value :  1.67503e-05
 Reference value :  1.67504e-05
 Reference value :  1.67506e-05
 Reference value :  1.67508e-05
 Reference value :  1.67512e-05
 Reference value :  1.67517e-05
 Reference value :  1.67522e-05
 Reference value :  1.67527e-05
 Reference value :  1.67535e-05
 Reference value :  1.67544e-05
 Reference value :  1.67553e-05
 Reference value :  1.67563e-05
 Reference value :  1.67590e-05
 Reference value :  1.67636e-05
 Reference value :  1.67742e-05
 Reference value :  1.68061e-05
 Reference value :  1.69279e-05
 Reference value :  1.70000e-05
 Reference value :  1.70000e-05
 Reference value :  1.70000e-05
 Reference value :  1.70000e-05
 Reference value :  1.70000e-05
 Reference value :  1.70000e-05
 Reference value :  1.70000e-05
 Reference value :  1.70001e-05
 Reference value :  1.70001e-05
 Reference value :  1.70001e-05
 Reference value :  1.70002e-05
 Reference value :  1.70003e-05
 Reference value :  1.70005e-05
 Reference value :  1.70008e-05
 Reference value :  1.70013e-05
 Reference value :  1.70019e-05
 Reference value :  1.70024e-05
 Reference value :  1.70030e-05
 Reference value :  1.70037e-05
 Reference value :  1.70044e-05
 Reference value :  1.70051e-05
 Reference value :  1.70057e-05
 Reference value :  1.70063e-05
 Reference value :  1.70071e-05
 Reference value :  1.70094e-05
 Reference value :  1.70150e-05
 Reference value :  1.70220e-05
 Reference value :  1.70292e-05
 Reference value :  1.70342e-05
 Reference value :  1.70384e-05
 Reference value :  1.70464e-05
 Reference value :  1.70526e-05
 Reference value :  1.70607e-05
 Reference value :  1.70757e-05
 Reference value :  1.71076e-05
 Reference value :  1.71798e-05
 Reference value :  1.72501e-05
 Reference value :  1.72502e-05
 Reference value :  1.72502e-05
 Reference value :  1.72502e-05
 Reference value :  1.72503e-05
 Reference value :  1.72506e-05
 Reference value :  1.72513e-05
 Reference value :  1.72518e-05
 Reference value :  1.72528e-05
 Reference value :  1.72536e-05
 Reference value :  1.72542e-05
 Reference value :  1.72555e-05
 Reference value :  1.72570e-05
 Reference value :  1.72601e-05
 Reference value :  1.72664e-05
 Reference value :  1.72868e-05
 Reference value :  1.73687e-05
 Reference value :  1.74778e-05
 Reference value :  1.75000e-05
 Reference value :  1.75001e-05
 Reference value :  1.75001e-05
 Reference value :  1.75002e-05
 Reference value :  1.75003e-05
 Reference value :  1.75009e-05
 Reference value :  1.75013e-05
 Reference value :  1.75018e-05
 Reference value :  1.75022e-05
 Reference value :  1.75033e-05
 Reference value :  1.75048e-05
 Reference value :  1.75068e-05
 Reference value :  1.75082e-05
 Reference value :  1.75110e-05
 Reference value :  1.75123e-05
 Reference value :  1.75141e-05
 Reference value :  1.75159e-05
 Reference value :  1.75177e-05
 Reference value :  1.75199e-05
 Reference value :  1.75221e-05
 Reference value :  1.75322e-05
 Reference value :  1.75575e-05
 Reference value :  1.76384e-05
 Reference value :  1.77501e-05
 Reference value :  1.77501e-05
 Reference value :  1.77502e-05
 Reference value :  1.77502e-05
 Reference value :  1.77503e-05
 Reference value :  1.77504e-05
 Reference value :  1.77508e-05
 Reference value :  1.77517e-05
 Reference value :  1.77523e-05
 Reference value :  1.77536e-05
 Reference value :  1.77542e-05
 Reference value :  1.77548e-05
 Reference value :  1.77554e-05
 Reference value :  1.77561e-05
 Reference value :  1.77569e-05
 Reference value :  1.77576e-05
 Reference value :  1.77584e-05
 Reference value :  1.77593e-05
 Reference value :  1.77619e-05
 Reference value :  1.77665e-05
 Reference value :  1.77757e-05
 Reference value :  1.77952e-05
 Reference value :  1.78435e-05
 Reference value :  1.80000e-05
 Reference value :  1.80018e-05
 Reference value :  1.80053e-05
 Reference value :  1.80071e-05
 Reference value :  1.80103e-05
 Reference value :  1.80115e-05
 Reference value :  1.80128e-05
 Reference value :  1.80139e-05
 Reference value :  1.80152e-05
 Reference value :  1.80161e-05
 Reference value :  1.80171e-05
 Reference value :  1.80183e-05
 Reference value :  1.80206e-05
 Reference value :  1.80218e-05
 Reference value :  1.80236e-05
 Reference value :  1.80290e-05
 Reference value :  1.80428e-05
 Reference value :  1.80829e-05
 Reference value :  1.81256e-05
 Reference value :  1.82501e-05
 Reference value :  1.82501e-05
 Reference value :  1.82502e-05
 Reference value :  1.82502e-05
 Reference value :  1.82503e-05
 Reference value :  1.82504e-05
 Reference value :  1.82509e-05
 Reference value :  1.82513e-05
 Reference value :  1.82517e-05
 Reference value :  1.82528e-05
 Reference value :  1.82536e-05
 Reference value :  1.82542e-05
 Reference value :  1.82548e-05
 Reference value :  1.82554e-05
 Reference value :  1.82571e-05
 Reference value :  1.82600e-05
 Reference value :  1.82661e-05
 Reference value :  1.82868e-05
 Reference value :  1.83699e-05
 Reference value :  1.85000e-05
 Reference value :  1.85000e-05
 Reference value :  1.85001e-05
 Reference value :  1.85001e-05
 Reference value :  1.85002e-05
 Reference value :  1.85005e-05
 Reference value :  1.85013e-05
 Reference value :  1.85022e-05
 Reference value :  1.85033e-05
 Reference value :  1.85040e-05
 Reference value :  1.85056e-05
 Reference value :  1.85067e-05
 Reference value :  1.85076e-05
 Reference value :  1.85095e-05
 Reference value :  1.85118e-05
 Reference value :  1.85154e-05
 Reference value :  1.85254e-05
 Reference value :  1.85593e-05
 Reference value :  1.86930e-05
 Reference value :  1.87501e-05
 Reference value :  1.87502e-05
 Reference value :  1.87502e-05
 Reference value :  1.87503e-05
 Reference value :  1.87504e-05
 Reference value :  1.87509e-05
 Reference value :  1.87518e-05
 Reference value :  1.87523e-05
 Reference value :  1.87536e-05
 Reference value :  1.87542e-05
 Reference value :  1.87548e-05
 Reference value :  1.87554e-05
 Reference value :  1.87560e-05
 Reference value :  1.87569e-05
 Reference value :  1.87587e-05
 Reference value :  1.87611e-05
 Reference value :  1.87652e-05
 Reference value :  1.87745e-05
 Reference value :  1.87967e-05
 Reference value :  1.88525e-05
 Reference value :  1.90000e-05
 Reference value :  1.90000e-05
 Reference value :  1.90001e-05
 Reference value :  1.90001e-05
 Reference value :  1.90002e-05
 Reference value :  1.90003e-05
 Reference value :  1.90009e-05
 Reference value :  1.90013e-05
 Reference value :  1.90022e-05
 Reference value :  1.90034e-05
 Reference value :  1.90040e-05
 Reference value :  1.90046e-05
 Reference value :  1.90052e-05
 Reference value :  1.90058e-05
 Reference value :  1.90065e-05
 Reference value :  1.90081e-05
 Reference value :  1.90105e-05
 Reference value :  1.90115e-05
 Reference value :  1.90125e-05
 Reference value :  1.90136e-05
 Reference value :  1.90147e-05
 Reference value :  1.90154e-05
 Reference value :  1.90163e-05
 Reference value :  1.90173e-05
 Reference value :  1.90185e-05
 Reference value :  1.90208e-05
 Reference value :  1.90242e-05
 Reference value :  1.90319e-05
 Reference value :  1.90537e-05
 Reference value :  1.91131e-05
 Reference value :  1.92501e-05
 Reference value :  1.92501e-05
 Reference value :  1.92502e-05
 Reference value :  1.92502e-05
 Reference value :  1.92503e-05
 Reference value :  1.92503e-05
 Reference value :  1.92506e-05
 Reference value :  1.92513e-05
 Reference value :  1.92517e-05
 Reference value :  1.92528e-05
 Reference value :  1.92536e-05
 Reference value :  1.92542e-05
 Reference value :  1.92555e-05
 Reference value :  1.92571e-05
 Reference value :  1.92583e-05
 Reference value :  1.92627e-05
 Reference value :  1.92731e-05
 Reference value :  1.93146e-05
 Reference value :  1.94628e-05
 Reference value :  1.95000e-05
 Reference value :  1.95006e-05
 Reference value :  1.95019e-05
 Reference value :  1.95026e-05
 Reference value :  1.95038e-05
 Reference value :  1.95045e-05
 Reference value :  1.95064e-05
 Reference value :  1.95075e-05
 Reference value :  1.95086e-05
 Reference value :  1.95098e-05
 Reference value :  1.95122e-05
 Reference value :  1.95162e-05
 Reference value :  1.95275e-05
 Reference value :  1.95614e-05
 Reference value :  1.96635e-05
 Reference value :  1.97501e-05
 Reference value :  1.97502e-05
 Reference value :  1.97502e-05
 Reference value :  1.97502e-05
 Reference value :  1.97503e-05
 Reference value :  1.97506e-05
 Reference value :  1.97513e-05
 Reference value :  1.97518e-05
 Reference value :  1.97528e-05
 Reference value :  1.97536e-05
 Reference value :  1.97542e-05
 Reference value :  1.97549e-05
 Reference value :  1.97554e-05
 Reference value :  1.97569e-05
 Reference value :  1.97587e-05
 Reference value :  1.97612e-05
 Reference value :  1.97653e-05
 Reference value :  1.97745e-05
 Reference value :  1.97964e-05
 Reference value :  1.98508e-05
 Reference value :  2.00000e-05
 Reference value :  2.00000e-05
 Reference value :  2.00001e-05
 Reference value :  2.00001e-05
 Reference value :  2.00002e-05
 Reference value :  2.00005e-05
 Reference value :  2.00013e-05
 Reference value :  2.00018e-05
 Reference value :  2.00022e-05
 Reference value :  2.00034e-05
 Reference value :  2.00040e-05
 Reference value :  2.00046e-05
 Reference value :  2.00052e-05
 Reference value :  2.00058e-05
 Reference value :  2.00065e-05
 Reference value :  2.00072e-05
 Reference value :  2.00091e-05
 Reference value :  2.00115e-05
 Reference value :  2.00126e-05
 Reference value :  2.00136e-05
 Reference value :  2.00147e-05
 Reference value :  2.00154e-05
 Reference value :  2.00174e-05
 Reference value :  2.00185e-05
 Reference value :  2.00209e-05
 Reference value :  2.00222e-05
 Reference value :  2.00243e-05
 Reference value :  2.00321e-05
 Reference value :  2.00543e-05
 Reference value :  2.01188e-05
 Reference value :  2.02207e-05
 Reference value :  2.02501e-05
 Reference value :  2.02502e-05
 Reference value :  2.02502e-05
 Reference value :  2.02502e-05
 Reference value :  2.02503e-05
 Reference value :  2.02506e-05
 Reference value :  2.02509e-05
 Reference value :  2.02518e-05
 Reference value :  2.02523e-05
 Reference value :  2.02528e-05
 Reference value :  2.02536e-05
 Reference value :  2.02542e-05
 Reference value :  2.02548e-05
 Reference value :  2.02555e-05
 Reference value :  2.02571e-05
 Reference value :  2.02600e-05
 Reference value :  2.02662e-05
 Reference value :  2.02871e-05
 Reference value :  2.03707e-05
 Reference value :  2.05000e-05
 Reference value :  2.05003e-05
 Reference value :  2.05009e-05
 Reference value :  2.05013e-05
 Reference value :  2.05016e-05
 Reference value :  2.05020e-05
 Reference value :  2.05025e-05
 Reference value :  2.05037e-05
 Reference value :  2.05044e-05
 Reference value :  2.05051e-05
 Reference value :  2.05062e-05
 Reference value :  2.05072e-05
 Reference value :  2.05081e-05
 Reference value :  2.05100e-05
 Reference value :  2.05122e-05
 Reference value :  2.05136e-05
 Reference value :  2.05199e-05
 Reference value :  2.05374e-05
 Reference value :  2.05880e-05
 Reference value :  2.07501e-05
 Reference value :  2.07501e-05
 Reference value :  2.07502e-05
 Reference value :  2.07502e-05
 Reference value :  2.07503e-05
 Reference value :  2.07506e-05
 Reference value :  2.07509e-05
 Reference value :  2.07518e-05
 Reference value :  2.07523e-05
 Reference value :  2.07537e-05
 Reference value :  2.07542e-05
 Reference value :  2.07555e-05
 Reference value :  2.07569e-05
 Reference value :  2.07588e-05
 Reference value :  2.07600e-05
 Reference value :  2.07629e-05
 Reference value :  2.07686e-05
 Reference value :  2.07746e-05
 Reference value :  2.08179e-05
 Reference value :  2.09187e-05
 Reference value :  2.10000e-05
 Reference value :  2.10001e-05
 Reference value :  2.10001e-05
 Reference value :  2.10002e-05
 Reference value :  2.10003e-05
 Reference value :  2.10009e-05
 Reference value :  2.10013e-05
 Reference value :  2.10018e-05
 Reference value :  2.10022e-05
 Reference value :  2.10034e-05
 Reference value :  2.10046e-05
 Reference value :  2.10058e-05
 Reference value :  2.10065e-05
 Reference value :  2.10081e-05
 Reference value :  2.10105e-05
 Reference value :  2.10115e-05
 Reference value :  2.10126e-05
 Reference value :  2.10139e-05
 Reference value :  2.10151e-05
 Reference value :  2.10177e-05
 Reference value :  2.10188e-05
 Reference value :  2.10200e-05
 Reference value :  2.10230e-05
 Reference value :  2.10280e-05
 Reference value :  2.10419e-05
 Reference value :  2.10803e-05
 Reference value :  2.11212e-05
 Reference value :  2.11384e-05
 Reference value :  2.11949e-05
 Reference value :  2.12501e-05
 Reference value :  2.12501e-05
 Reference value :  2.12502e-05
 Reference value :  2.12502e-05
 Reference value :  2.12503e-05
 Reference value :  2.12504e-05
 Reference value :  2.12508e-05
 Reference value :  2.12516e-05
 Reference value :  2.12521e-05
 Reference value :  2.12534e-05
 Reference value :  2.12542e-05
 Reference value :  2.12548e-05
 Reference value :  2.12555e-05
 Reference value :  2.12570e-05
 Reference value :  2.12579e-05
 Reference value :  2.12619e-05
 Reference value :  2.12713e-05
 Reference value :  2.13004e-05
 Reference value :  2.13925e-05
 Reference value :  2.14961e-05
 Reference value :  2.15000e-05
 Reference value :  2.15001e-05
 Reference value :  2.15001e-05
 Reference value :  2.15002e-05
 Reference value :  2.15006e-05
 Reference value :  2.15016e-05
 Reference value :  2.15026e-05
 Reference value :  2.15037e-05
 Reference value :  2.15051e-05
 Reference value :  2.15069e-05
 Reference value :  2.15076e-05
 Reference value :  2.15095e-05
 Reference value :  2.15117e-05
 Reference value :  2.15129e-05
 Reference value :  2.15169e-05
 Reference value :  2.15273e-05
 Reference value :  2.15582e-05
 Reference value :  2.16745e-05
 Reference value :  2.17501e-05
 Reference value :  2.17502e-05
 Reference value :  2.17502e-05
 Reference value :  2.17503e-05
 Reference value :  2.17504e-05
 Reference value :  2.17508e-05
 Reference value :  2.17516e-05
 Reference value :  2.17521e-05
 Reference value :  2.17534e-05
 Reference value :  2.17548e-05
 Reference value :  2.17562e-05
 Reference value :  2.17571e-05
 Reference value :  2.17590e-05
 Reference value :  2.17601e-05
 Reference value :  2.17633e-05
 Reference value :  2.17692e-05
 Reference value :  2.17837e-05
 Reference value :  2.18206e-05
 Reference value :  2.19139e-05
 Reference value :  2.20014e-05
 Reference value :  2.20041e-05
 Reference value :  2.20055e-05
 Reference value :  2.20068e-05
 Reference value :  2.20080e-05
 Reference value :  2.20092e-05
 Reference value :  2.20117e-05
 Reference value :  2.20129e-05
 Reference value :  2.20143e-05
 Reference value :  2.20156e-05
 Reference value :  2.20168e-05
 Reference value :  2.20181e-05
 Reference value :  2.20193e-05
 Reference value :  2.20205e-05
 Reference value :  2.20235e-05
 Reference value :  2.20286e-05
 Reference value :  2.20339e-05
 Reference value :  2.20552e-05
 Reference value :  2.20628e-05
 Reference value :  2.20704e-05
 Reference value :  2.20944e-05
 Reference value :  2.21356e-05
 Reference value :  2.21588e-05
 Reference value :  2.22257e-05
 Reference value :  2.22501e-05
 Reference value :  2.22502e-05
 Reference value :  2.22502e-05
 Reference value :  2.22503e-05
 Reference value :  2.22504e-05
 Reference value :  2.22506e-05
 Reference value :  2.22510e-05
 Reference value :  2.22516e-05
 Reference value :  2.22526e-05
 Reference value :  2.22532e-05
 Reference value :  2.22541e-05
 Reference value :  2.22547e-05
 Reference value :  2.22561e-05
 Reference value :  2.22569e-05
 Reference value :  2.22578e-05
 Reference value :  2.22618e-05
 Reference value :  2.22710e-05
 Reference value :  2.22999e-05
 Reference value :  2.23905e-05
 Reference value :  2.25000e-05
 Reference value :  2.25000e-05
 Reference value :  2.25001e-05
 Reference value :  2.25001e-05
 Reference value :  2.25002e-05
 Reference value :  2.25003e-05
 Reference value :  2.25006e-05
 Reference value :  2.25010e-05
 Reference value :  2.25016e-05
 Reference value :  2.25026e-05
 Reference value :  2.25031e-05
 Reference value :  2.25037e-05
 Reference value :  2.25044e-05
 Reference value :  2.25059e-05
 Reference value :  2.25069e-05
 Reference value :  2.25076e-05
 Reference value :  2.25085e-05
 Reference value :  2.25095e-05
 Reference value :  2.25116e-05
 Reference value :  2.25129e-05
 Reference value :  2.25169e-05
 Reference value :  2.25274e-05
 Reference value :  2.25585e-05
 Reference value :  2.26760e-05
 Reference value :  2.27501e-05
 Reference value :  2.27501e-05
 Reference value :  2.27502e-05
 Reference value :  2.27502e-05
 Reference value :  2.27503e-05
 Reference value :  2.27504e-05
 Reference value :  2.27508e-05
 Reference value :  2.27516e-05
 Reference value :  2.27521e-05
 Reference value :  2.27534e-05
 Reference value :  2.27542e-05
 Reference value :  2.27548e-05
 Reference value :  2.27562e-05
 Reference value :  2.27571e-05
 Reference value :  2.27590e-05
 Reference value :  2.27601e-05
 Reference value :  2.27633e-05
 Reference value :  2.27692e-05
 Reference value :  2.27838e-05
 Reference value :  2.28208e-05
 Reference value :  2.29145e-05
 Reference value :  2.30000e-05
 Reference value :  2.30013e-05
 Reference value :  2.30040e-05
 Reference value :  2.30054e-05
 Reference value :  2.30068e-05
 Reference value :  2.30079e-05
 Reference value :  2.30106e-05
 Reference value :  2.30117e-05
 Reference value :  2.30129e-05
 Reference value :  2.30142e-05
 Reference value :  2.30155e-05
 Reference value :  2.30167e-05
 Reference value :  2.30179e-05
 Reference value :  2.30190e-05
 Reference value :  2.30217e-05
 Reference value :  2.30254e-05
 Reference value :  2.30345e-05
 Reference value :  2.30383e-05
 Reference value :  2.30427e-05
 Reference value :  2.30562e-05
 Reference value :  2.30909e-05
 Reference value :  2.31957e-05
 Reference value :  2.32501e-05
 Reference value :  2.32502e-05
 Reference value :  2.32502e-05
 Reference value :  2.32502e-05
 Reference value :  2.32503e-05
 Reference value :  2.32504e-05
 Reference value :  2.32506e-05
 Reference value :  2.32510e-05
 Reference value :  2.32516e-05
 Reference value :  2.32521e-05
 Reference value :  2.32532e-05
 Reference value :  2.32541e-05
 Reference value :  2.32547e-05
 Reference value :  2.32554e-05
 Reference value :  2.32569e-05
 Reference value :  2.32578e-05
 Reference value :  2.32619e-05
 Reference value :  2.32711e-05
 Reference value :  2.33000e-05
 Reference value :  2.33908e-05
 Reference value :  2.35000e-05
 Reference value :  2.35000e-05
 Reference value :  2.35001e-05
 Reference value :  2.35001e-05
 Reference value :  2.35002e-05
 Reference value :  2.35006e-05
 Reference value :  2.35010e-05
 Reference value :  2.35016e-05
 Reference value :  2.35021e-05
 Reference value :  2.35026e-05
 Reference value :  2.35037e-05
 Reference value :  2.35044e-05
 Reference value :  2.35059e-05
 Reference value :  2.35069e-05
 Reference value :  2.35076e-05
 Reference value :  2.35095e-05
 Reference value :  2.35117e-05
 Reference value :  2.35129e-05
 Reference value :  2.35169e-05
 Reference value :  2.35273e-05
 Reference value :  2.35582e-05
 Reference value :  2.36742e-05
 Reference value :  2.37501e-05
 Reference value :  2.37501e-05
 Reference value :  2.37502e-05
 Reference value :  2.37502e-05
 Reference value :  2.37503e-05
 Reference value :  2.37506e-05
 Reference value :  2.37511e-05
 Reference value :  2.37516e-05
 Reference value :  2.37521e-05
 Reference value :  2.37534e-05
 Reference value :  2.37548e-05
 Reference value :  2.37562e-05
 Reference value :  2.37571e-05
 Reference value :  2.37590e-05
 Reference value :  2.37601e-05
 Reference value :  2.37633e-05
 Reference value :  2.37691e-05
 Reference value :  2.37837e-05
 Reference value :  2.38205e-05
 Reference value :  2.39135e-05
 Reference value :  2.40000e-05
 Reference value :  2.40001e-05
 Reference value :  2.40001e-05
 Reference value :  2.40002e-05
 Reference value :  2.40003e-05
 Reference value :  2.40010e-05
 Reference value :  2.40016e-05
 Reference value :  2.40026e-05
 Reference value :  2.40037e-05
 Reference value :  2.40050e-05
 Reference value :  2.40056e-05
 Reference value :  2.40061e-05
 Reference value :  2.40074e-05
 Reference value :  2.40082e-05
 Reference value :  2.40092e-05
 Reference value :  2.40118e-05
 Reference value :  2.40129e-05
 Reference value :  2.40141e-05
 Reference value :  2.40151e-05
 Reference value :  2.40161e-05
 Reference value :  2.40172e-05
 Reference value :  2.40183e-05
 Reference value :  2.40195e-05
 Reference value :  2.40209e-05
 Reference value :  2.40242e-05
 Reference value :  2.40291e-05
 Reference value :  2.40384e-05
 Reference value :  2.40675e-05
 Reference value :  2.41042e-05
 Reference value :  2.41741e-05
 Reference value :  2.42501e-05
 Reference value :  2.42501e-05
 Reference value :  2.42501e-05
 Reference value :  2.42502e-05
 Reference value :  2.42502e-05
 Reference value :  2.42502e-05
 Reference value :  2.42502e-05
 Reference value :  2.42503e-05
 Reference value :  2.42503e-05
 Reference value :  2.42504e-05
 Reference value :  2.42506e-05
 Reference value :  2.42507e-05
 Reference value :  2.42510e-05
 Reference value :  2.42515e-05
 Reference value :  2.42521e-05
 Reference value :  2.42526e-05
 Reference value :  2.42534e-05
 Reference value :  2.42542e-05
 Reference value :  2.42547e-05
 Reference value :  2.42554e-05
 Reference value :  2.42561e-05
 Reference value :  2.42569e-05
 Reference value :  2.42578e-05
 Reference value :  2.42596e-05
 Reference value :  2.42652e-05
 Reference value :  2.42708e-05
 Reference value :  2.42987e-05
 Reference value :  2.43864e-05
 Reference value :  2.44843e-05
 Reference value :  2.45000e-05
 Reference value :  2.45000e-05
 Reference value :  2.45001e-05
 Reference value :  2.45001e-05
 Reference value :  2.45002e-05
 Reference value :  2.45003e-05
 Reference value :  2.45006e-05
 Reference value :  2.45010e-05
 Reference value :  2.45016e-05
 Reference value :  2.45026e-05
 Reference value :  2.45037e-05
 Reference value :  2.45044e-05
 Reference value :  2.45051e-05
 Reference value :  2.45059e-05
 Reference value :  2.45069e-05
 Reference value :  2.45076e-05
 Reference value :  2.45085e-05
 Reference value :  2.45095e-05
 Reference value :  2.45106e-05
 Reference value :  2.45116e-05
 Reference value :  2.45129e-05
 Reference value :  2.45169e-05
 Reference value :  2.45274e-05
 Reference value :  2.45588e-05
 Reference value :  2.46772e-05
 Reference value :  2.47501e-05
 Reference value :  2.47501e-05
 Reference value :  2.47502e-05
 Reference value :  2.47502e-05
 Reference value :  2.47502e-05
 Reference value :  2.47503e-05
 Reference value :  2.47503e-05
 Reference value :  2.47504e-05
 Reference value :  2.47506e-05
 Reference value :  2.47508e-05
 Reference value :  2.47511e-05
 Reference value :  2.47516e-05
 Reference value :  2.47521e-05
 Reference value :  2.47527e-05
 Reference value :  2.47534e-05
 Reference value :  2.47542e-05
 Reference value :  2.47548e-05
 Reference value :  2.47555e-05
 Reference value :  2.47562e-05
 Reference value :  2.47571e-05
 Reference value :  2.47580e-05
 Reference value :  2.47590e-05
 Reference value :  2.47614e-05
 Reference value :  2.47656e-05
 Reference value :  2.47752e-05
 Reference value :  2.47838e-05
 Reference value :  2.47984e-05
 Reference value :  2.48565e-05
 Reference value :  2.50000e-05
 Reference value :  2.50000e-05
 Reference value :  2.50001e-05
 Reference value :  2.50001e-05
 Reference value :  2.50002e-05
 Reference value :  2.50006e-05
 Reference value :  2.50010e-05
 Reference value :  2.50016e-05
 Reference value :  2.50026e-05
 Reference value :  2.50037e-05
 Reference value :  2.50044e-05
 Reference value :  2.50050e-05
 Reference value :  2.50056e-05
 Reference value :  2.50061e-05
 Reference value :  2.50074e-05
 Reference value :  2.50082e-05
 Reference value :  2.50091e-05
 Reference value :  2.50108e-05
 Reference value :  2.50118e-05
 Reference value :  2.50128e-05
 Reference value :  2.50161e-05
 Reference value :  2.50174e-05
 Reference value :  2.50184e-05
 Reference value :  2.50216e-05
 Reference value :  2.50294e-05
 Reference value :  2.50530e-05
 Reference value :  2.51206e-05
 Reference value :  2.52501e-05
 Reference value :  2.52501e-05
 Reference value :  2.52502e-05
 Reference value :  2.52502e-05
 Reference value :  2.52503e-05
 Reference value :  2.52504e-05
 Reference value :  2.52508e-05
 Reference value :  2.52517e-05
 Reference value :  2.52522e-05
 Reference value :  2.52527e-05
 Reference value :  2.52535e-05
 Reference value :  2.52544e-05
 Reference value :  2.52553e-05
 Reference value :  2.52563e-05
 Reference value :  2.52590e-05
 Reference value :  2.52636e-05
 Reference value :  2.52742e-05
 Reference value :  2.52858e-05
 Reference value :  2.53467e-05
 Reference value :  2.55000e-05
 Reference value :  2.55000e-05
 Reference value :  2.55000e-05
 Reference value :  2.55000e-05
 Reference value :  2.55000e-05
 Reference value :  2.55000e-05
 Reference value :  2.55000e-05
 Reference value :  2.55001e-05
[...]
 Reference value :  8.55001e-05
 Reference value :  8.55002e-05
 Reference value :  8.55003e-05
 Reference value :  8.55009e-05
 Reference value :  8.55013e-05
 Reference value :  8.55022e-05
 Reference value :  8.55033e-05
 Reference value :  8.55048e-05
 Reference value :  8.55068e-05
 Reference value :  8.55096e-05
 Reference value :  8.55109e-05
 Reference value :  8.55139e-05
 Reference value :  8.55177e-05
 Reference value :  8.55221e-05
 Reference value :  8.55320e-05
 Reference value :  8.55573e-05
 Reference value :  8.57007e-05
 Reference value :  8.57501e-05
 Reference value :  8.57502e-05
 Reference value :  8.57502e-05
 Reference value :  8.57503e-05
 Reference value :  8.57504e-05
 Reference value :  8.57508e-05
 Reference value :  8.57517e-05
 Reference value :  8.57528e-05
 Reference value :  8.57542e-05
 Reference value :  8.57548e-05
 Reference value :  8.57554e-05
 Reference value :  8.57569e-05
 Reference value :  8.57586e-05
 Reference value :  8.57596e-05
 Reference value :  8.57625e-05
 Reference value :  8.57677e-05
 Reference value :  8.57786e-05
 Reference value :  8.58246e-05
 Reference value :  8.59054e-05
 Reference value :  8.60000e-05
 Reference value :  8.60001e-05
 Reference value :  8.60001e-05
 Reference value :  8.60002e-05
 Reference value :  8.60003e-05
 Reference value :  8.60009e-05
 Reference value :  8.60013e-05
 Reference value :  8.60022e-05
 Reference value :  8.60034e-05
 Reference value :  8.60040e-05
 Reference value :  8.60046e-05
 Reference value :  8.60058e-05
 Reference value :  8.60065e-05
 Reference value :  8.60081e-05
 Reference value :  8.60105e-05
 Reference value :  8.60115e-05
 Reference value :  8.60125e-05
 Reference value :  8.60136e-05
 Reference value :  8.60154e-05
 Reference value :  8.60173e-05
 Reference value :  8.60195e-05
 Reference value :  8.60208e-05
 Reference value :  8.60242e-05
 Reference value :  8.60398e-05
 Reference value :  8.61164e-05
 Reference value :  8.62501e-05
 Reference value :  8.62502e-05
 Reference value :  8.62502e-05
 Reference value :  8.62503e-05
 Reference value :  8.62506e-05
 Reference value :  8.62513e-05
 Reference value :  8.62523e-05
 Reference value :  8.62536e-05
 Reference value :  8.62542e-05
 Reference value :  8.62555e-05
 Reference value :  8.62571e-05
 Reference value :  8.62600e-05
 Reference value :  8.62662e-05
 Reference value :  8.63163e-05
 Reference value :  8.64878e-05
 Reference value :  8.65002e-05
 Reference value :  8.65009e-05
 Reference value :  8.65015e-05
 Reference value :  8.65025e-05
 Reference value :  8.65036e-05
 Reference value :  8.65049e-05
 Reference value :  8.65059e-05
 Reference value :  8.65075e-05
 Reference value :  8.65094e-05
 Reference value :  8.65116e-05
 Reference value :  8.65195e-05
 Reference value :  8.65431e-05
 Reference value :  8.66374e-05
 Reference value :  8.67501e-05
 Reference value :  8.67502e-05
 Reference value :  8.67502e-05
 Reference value :  8.67503e-05
 Reference value :  8.67504e-05
 Reference value :  8.67509e-05
 Reference value :  8.67518e-05
 Reference value :  8.67528e-05
 Reference value :  8.67542e-05
 Reference value :  8.67555e-05
 Reference value :  8.67570e-05
 Reference value :  8.67588e-05
 Reference value :  8.67612e-05
 Reference value :  8.67654e-05
 Reference value :  8.67746e-05
 Reference value :  8.67965e-05
 Reference value :  8.68518e-05
 Reference value :  8.70000e-05
 Reference value :  8.70000e-05
 Reference value :  8.70001e-05
 Reference value :  8.70001e-05
 Reference value :  8.70002e-05
 Reference value :  8.70005e-05
 Reference value :  8.70013e-05
 Reference value :  8.70022e-05
 Reference value :  8.70034e-05
 Reference value :  8.70046e-05
 Reference value :  8.70052e-05
 Reference value :  8.70058e-05
 Reference value :  8.70065e-05
 Reference value :  8.70081e-05
 Reference value :  8.70105e-05
 Reference value :  8.70115e-05
 Reference value :  8.70126e-05
 Reference value :  8.70136e-05
 Reference value :  8.70154e-05
 Reference value :  8.70173e-05
 Reference value :  8.70195e-05
 Reference value :  8.70208e-05
 Reference value :  8.70242e-05
 Reference value :  8.70320e-05
 Reference value :  8.70781e-05
 Reference value :  8.71699e-05
 Reference value :  8.72501e-05
 Reference value :  8.72502e-05
 Reference value :  8.72502e-05
 Reference value :  8.72503e-05
 Reference value :  8.72506e-05
 Reference value :  8.72513e-05
 Reference value :  8.72523e-05
 Reference value :  8.72536e-05
 Reference value :  8.72542e-05
 Reference value :  8.72555e-05
 Reference value :  8.72571e-05
 Reference value :  8.72600e-05
 Reference value :  8.72662e-05
 Reference value :  8.72877e-05
 Reference value :  8.73735e-05
 Reference value :  8.75000e-05
 Reference value :  8.75000e-05
 Reference value :  8.75001e-05
 Reference value :  8.75001e-05
 Reference value :  8.75002e-05
 Reference value :  8.75005e-05
 Reference value :  8.75013e-05
 Reference value :  8.75022e-05
 Reference value :  8.75033e-05
 Reference value :  8.75048e-05
 Reference value :  8.75056e-05
 Reference value :  8.75067e-05
 Reference value :  8.75076e-05
 Reference value :  8.75095e-05
 Reference value :  8.75118e-05
 Reference value :  8.75191e-05
 Reference value :  8.75591e-05
 Reference value :  8.77501e-05
 Reference value :  8.77501e-05
 Reference value :  8.77502e-05
 Reference value :  8.77502e-05
 Reference value :  8.77503e-05
 Reference value :  8.77506e-05
 Reference value :  8.77513e-05
 Reference value :  8.77523e-05
 Reference value :  8.77536e-05
 Reference value :  8.77542e-05
 Reference value :  8.77554e-05
 Reference value :  8.77569e-05
 Reference value :  8.77587e-05
 Reference value :  8.77611e-05
 Reference value :  8.77652e-05
 Reference value :  8.77745e-05
 Reference value :  8.77968e-05
 Reference value :  8.79102e-05
 Reference value :  8.80000e-05
 Reference value :  8.80001e-05
 Reference value :  8.80001e-05
 Reference value :  8.80002e-05
 Reference value :  8.80003e-05
 Reference value :  8.80009e-05
 Reference value :  8.80013e-05
 Reference value :  8.80022e-05
 Reference value :  8.80034e-05
 Reference value :  8.80046e-05
 Reference value :  8.80058e-05
 Reference value :  8.80065e-05
 Reference value :  8.80081e-05
 Reference value :  8.80105e-05
 Reference value :  8.80115e-05
 Reference value :  8.80126e-05
 Reference value :  8.80136e-05
 Reference value :  8.80154e-05
 Reference value :  8.80174e-05
 Reference value :  8.80195e-05
 Reference value :  8.80209e-05
 Reference value :  8.80243e-05
 Reference value :  8.80321e-05
 Reference value :  8.80543e-05
 Reference value :  8.81189e-05
 Reference value :  8.82208e-05
 Reference value :  8.82501e-05
 Reference value :  8.82502e-05
 Reference value :  8.82502e-05
 Reference value :  8.82503e-05
 Reference value :  8.82506e-05
 Reference value :  8.82513e-05
 Reference value :  8.82523e-05
 Reference value :  8.82536e-05
 Reference value :  8.82542e-05
 Reference value :  8.82555e-05
 Reference value :  8.82571e-05
 Reference value :  8.82601e-05
 Reference value :  8.82663e-05
 Reference value :  8.83164e-05
 Reference value :  8.84883e-05
 Reference value :  8.85000e-05
 Reference value :  8.85001e-05
 Reference value :  8.85001e-05
 Reference value :  8.85002e-05
 Reference value :  8.85005e-05
 Reference value :  8.85013e-05
 Reference value :  8.85018e-05
 Reference value :  8.85022e-05
 Reference value :  8.85033e-05
 Reference value :  8.85048e-05
 Reference value :  8.85067e-05
 Reference value :  8.85076e-05
 Reference value :  8.85095e-05
 Reference value :  8.85118e-05
 Reference value :  8.85191e-05
 Reference value :  8.85369e-05
 Reference value :  8.86034e-05
 Reference value :  8.87501e-05
 Reference value :  8.87501e-05
 Reference value :  8.87502e-05
 Reference value :  8.87502e-05
 Reference value :  8.87503e-05
 Reference value :  8.87506e-05
 Reference value :  8.87513e-05
 Reference value :  8.87523e-05
 Reference value :  8.87536e-05
 Reference value :  8.87542e-05
 Reference value :  8.87554e-05
 Reference value :  8.87569e-05
 Reference value :  8.87587e-05
 Reference value :  8.87611e-05
 Reference value :  8.87652e-05
 Reference value :  8.87745e-05
 Reference value :  8.88186e-05
 Reference value :  8.89103e-05
 Reference value :  8.90000e-05
 Reference value :  8.90001e-05
 Reference value :  8.90001e-05
 Reference value :  8.90002e-05
 Reference value :  8.90003e-05
 Reference value :  8.90009e-05
 Reference value :  8.90013e-05
 Reference value :  8.90022e-05
 Reference value :  8.90034e-05
 Reference value :  8.90046e-05
 Reference value :  8.90058e-05
 Reference value :  8.90065e-05
 Reference value :  8.90081e-05
 Reference value :  8.90105e-05
 Reference value :  8.90115e-05
 Reference value :  8.90139e-05
 Reference value :  8.90164e-05
 Reference value :  8.90188e-05
 Reference value :  8.90214e-05
 Reference value :  8.90250e-05
 Reference value :  8.90334e-05
 Reference value :  8.90580e-05
 Reference value :  8.91075e-05
 Reference value :  8.91378e-05
 Reference value :  8.91934e-05
 Reference value :  8.92501e-05
 Reference value :  8.92501e-05
 Reference value :  8.92502e-05
 Reference value :  8.92503e-05
 Reference value :  8.92504e-05
 Reference value :  8.92508e-05
 Reference value :  8.92516e-05
 Reference value :  8.92527e-05
 Reference value :  8.92542e-05
 Reference value :  8.92548e-05
 Reference value :  8.92562e-05
 Reference value :  8.92570e-05
 Reference value :  8.92597e-05
 Reference value :  8.92655e-05
 Reference value :  8.93010e-05
 Reference value :  8.93939e-05
 Reference value :  8.95000e-05
 Reference value :  8.95000e-05
 Reference value :  8.95001e-05
 Reference value :  8.95001e-05
 Reference value :  8.95002e-05
 Reference value :  8.95006e-05
 Reference value :  8.95016e-05
 Reference value :  8.95026e-05
 Reference value :  8.95037e-05
 Reference value :  8.95051e-05
 Reference value :  8.95069e-05
 Reference value :  8.95077e-05
 Reference value :  8.95095e-05
 Reference value :  8.95117e-05
 Reference value :  8.95129e-05
 Reference value :  8.95169e-05
 Reference value :  8.95385e-05
 Reference value :  8.95955e-05
 Reference value :  8.97501e-05
 Reference value :  8.97501e-05
 Reference value :  8.97502e-05
 Reference value :  8.97503e-05
 Reference value :  8.97504e-05
 Reference value :  8.97508e-05
 Reference value :  8.97516e-05
 Reference value :  8.97527e-05
 Reference value :  8.97542e-05
 Reference value :  8.97548e-05
 Reference value :  8.97562e-05
 Reference value :  8.97580e-05
 Reference value :  8.97601e-05
 Reference value :  8.97633e-05
 Reference value :  8.97751e-05
 Reference value :  8.97983e-05
 Reference value :  8.98562e-05
 Reference value :  9.00000e-05
 Reference value :  9.00000e-05
 Reference value :  9.00001e-05
 Reference value :  9.00001e-05
 Reference value :  9.00002e-05
 Reference value :  9.00006e-05
 Reference value :  9.00016e-05
 Reference value :  9.00026e-05
 Reference value :  9.00037e-05
 Reference value :  9.00050e-05
 Reference value :  9.00061e-05
 Reference value :  9.00074e-05
 Reference value :  9.00092e-05
 Reference value :  9.00118e-05
 Reference value :  9.00141e-05
 Reference value :  9.00151e-05
 Reference value :  9.00173e-05
 Reference value :  9.00196e-05
 Reference value :  9.00223e-05
 Reference value :  9.00267e-05
 Reference value :  9.00387e-05
 Reference value :  9.00615e-05
 Reference value :  9.00690e-05
 Reference value :  9.00897e-05
 Reference value :  9.01850e-05
 Reference value :  9.02501e-05
 Reference value :  9.02501e-05
 Reference value :  9.02502e-05
 Reference value :  9.02502e-05
 Reference value :  9.02503e-05
 Reference value :  9.02506e-05
 Reference value :  9.02510e-05
 Reference value :  9.02521e-05
 Reference value :  9.02526e-05
 Reference value :  9.02542e-05
 Reference value :  9.02548e-05
 Reference value :  9.02555e-05
 Reference value :  9.02561e-05
 Reference value :  9.02579e-05
 Reference value :  9.02619e-05
 Reference value :  9.02712e-05
 Reference value :  9.02995e-05
 Reference value :  9.03875e-05
 Reference value :  9.05000e-05
 Reference value :  9.05000e-05
 Reference value :  9.05001e-05
 Reference value :  9.05001e-05
 Reference value :  9.05002e-05
 Reference value :  9.05006e-05
 Reference value :  9.05016e-05
 Reference value :  9.05026e-05
 Reference value :  9.05037e-05
 Reference value :  9.05051e-05
 Reference value :  9.05069e-05
 Reference value :  9.05076e-05
 Reference value :  9.05095e-05
 Reference value :  9.05117e-05
 Reference value :  9.05129e-05
 Reference value :  9.05169e-05
 Reference value :  9.05273e-05
 Reference value :  9.05580e-05
 Reference value :  9.07501e-05
 Reference value :  9.07501e-05
 Reference value :  9.07502e-05
 Reference value :  9.07502e-05
 Reference value :  9.07503e-05
 Reference value :  9.07504e-05
 Reference value :  9.07508e-05
 Reference value :  9.07516e-05
 Reference value :  9.07521e-05
 Reference value :  9.07534e-05
 Reference value :  9.07542e-05
 Reference value :  9.07548e-05
 Reference value :  9.07562e-05
 Reference value :  9.07571e-05
 Reference value :  9.07590e-05
 Reference value :  9.07614e-05
 Reference value :  9.07656e-05
 Reference value :  9.07692e-05
 Reference value :  9.07838e-05
 Reference value :  9.08207e-05
 Reference value :  9.09139e-05
 Reference value :  9.10000e-05
 Reference value :  9.10001e-05
 Reference value :  9.10001e-05
 Reference value :  9.10002e-05
 Reference value :  9.10003e-05
 Reference value :  9.10010e-05
 Reference value :  9.10021e-05
 Reference value :  9.10026e-05
 Reference value :  9.10037e-05
 Reference value :  9.10044e-05
 Reference value :  9.10050e-05
 Reference value :  9.10061e-05
 Reference value :  9.10074e-05
 Reference value :  9.10092e-05
 Reference value :  9.10118e-05
 Reference value :  9.10142e-05
 Reference value :  9.10151e-05
 Reference value :  9.10173e-05
 Reference value :  9.10184e-05
 Reference value :  9.10209e-05
 Reference value :  9.10245e-05
 Reference value :  9.10309e-05
 Reference value :  9.10351e-05
 Reference value :  9.10438e-05
 Reference value :  9.10584e-05
 Reference value :  9.10987e-05
 Reference value :  9.12145e-05
 Reference value :  9.12501e-05
 Reference value :  9.12501e-05
 Reference value :  9.12502e-05
 Reference value :  9.12502e-05
 Reference value :  9.12502e-05
 Reference value :  9.12503e-05
 Reference value :  9.12506e-05
 Reference value :  9.12510e-05
 Reference value :  9.12521e-05
 Reference value :  9.12534e-05
 Reference value :  9.12548e-05
 Reference value :  9.12561e-05
 Reference value :  9.12570e-05
 Reference value :  9.12596e-05
 Reference value :  9.12653e-05
 Reference value :  9.12819e-05
 Reference value :  9.13877e-05
 Reference value :  9.14859e-05
 Reference value :  9.15003e-05
 Reference value :  9.15010e-05
 Reference value :  9.15018e-05
 Reference value :  9.15022e-05
 Reference value :  9.15034e-05
 Reference value :  9.15041e-05
 Reference value :  9.15048e-05
 Reference value :  9.15055e-05
 Reference value :  9.15065e-05
 Reference value :  9.15074e-05
 Reference value :  9.15095e-05
 Reference value :  9.15105e-05
 Reference value :  9.15116e-05
 Reference value :  9.15128e-05
 Reference value :  9.15170e-05
 Reference value :  9.15283e-05
 Reference value :  9.15727e-05
 Reference value :  9.17500e-05
 Reference value :  9.17501e-05
 Reference value :  9.17502e-05
 Reference value :  9.17502e-05
 Reference value :  9.17503e-05
 Reference value :  9.17504e-05
 Reference value :  9.17508e-05
 Reference value :  9.17516e-05
 Reference value :  9.17521e-05
 Reference value :  9.17526e-05
 Reference value :  9.17542e-05
 Reference value :  9.17548e-05
 Reference value :  9.17562e-05
 Reference value :  9.17580e-05
 Reference value :  9.17601e-05
 Reference value :  9.17633e-05
 Reference value :  9.17656e-05
 Reference value :  9.17752e-05
 Reference value :  9.17983e-05
 Reference value :  9.18562e-05
 Reference value :  9.20000e-05
 Reference value :  9.20000e-05
 Reference value :  9.20001e-05
 Reference value :  9.20001e-05
 Reference value :  9.20002e-05
 Reference value :  9.20006e-05
 Reference value :  9.20016e-05
 Reference value :  9.20026e-05
 Reference value :  9.20037e-05
 Reference value :  9.20050e-05
 Reference value :  9.20061e-05
 Reference value :  9.20074e-05
 Reference value :  9.20092e-05
 Reference value :  9.20108e-05
 Reference value :  9.20118e-05
 Reference value :  9.20142e-05
 Reference value :  9.20151e-05
 Reference value :  9.20172e-05
 Reference value :  9.20183e-05
 Reference value :  9.20194e-05
 Reference value :  9.20207e-05
 Reference value :  9.20219e-05
 Reference value :  9.20238e-05
 Reference value :  9.20285e-05
 Reference value :  9.20316e-05
 Reference value :  9.20457e-05
 Reference value :  9.20590e-05
 Reference value :  9.21333e-05
 Reference value :  9.21940e-05
 Reference value :  9.22501e-05
 Reference value :  9.22501e-05
 Reference value :  9.22501e-05
 Reference value :  9.22502e-05
 Reference value :  9.22502e-05
 Reference value :  9.22503e-05
 Reference value :  9.22504e-05
 Reference value :  9.22507e-05
 Reference value :  9.22515e-05
 Reference value :  9.22526e-05
 Reference value :  9.22542e-05
 Reference value :  9.22548e-05
 Reference value :  9.22555e-05
 Reference value :  9.22570e-05
 Reference value :  9.22596e-05
 Reference value :  9.22653e-05
 Reference value :  9.22818e-05
 Reference value :  9.23315e-05
 Reference value :  9.23616e-05
 Reference value :  9.23983e-05
 Reference value :  9.24277e-05
 Reference value :  9.24921e-05
 Reference value :  9.25000e-05
 Reference value :  9.25001e-05
 Reference value :  9.25001e-05
 Reference value :  9.25002e-05
 Reference value :  9.25003e-05
 Reference value :  9.25010e-05
 Reference value :  9.25016e-05
 Reference value :  9.25026e-05
 Reference value :  9.25037e-05
 Reference value :  9.25050e-05
 Reference value :  9.25056e-05
 Reference value :  9.25066e-05
 Reference value :  9.25074e-05
 Reference value :  9.25083e-05
 Reference value :  9.25093e-05
 Reference value :  9.25113e-05
 Reference value :  9.25124e-05
 Reference value :  9.25162e-05
 Reference value :  9.25300e-05
 Reference value :  9.25837e-05
 Reference value :  9.27501e-05
 Reference value :  9.27501e-05
 Reference value :  9.27502e-05
 Reference value :  9.27502e-05
 Reference value :  9.27503e-05
 Reference value :  9.27506e-05
 Reference value :  9.27511e-05
 Reference value :  9.27521e-05
 Reference value :  9.27527e-05
 Reference value :  9.27542e-05
 Reference value :  9.27548e-05
 Reference value :  9.27562e-05
 Reference value :  9.27581e-05
 Reference value :  9.27622e-05
 Reference value :  9.27723e-05
 Reference value :  9.28023e-05
 Reference value :  9.28950e-05
 Reference value :  9.30000e-05
 Reference value :  9.30000e-05
 Reference value :  9.30001e-05
 Reference value :  9.30001e-05
 Reference value :  9.30002e-05
 Reference value :  9.30003e-05
 Reference value :  9.30010e-05
 Reference value :  9.30021e-05
 Reference value :  9.30026e-05
 Reference value :  9.30037e-05
 Reference value :  9.30044e-05
 Reference value :  9.30050e-05
 Reference value :  9.30061e-05
 Reference value :  9.30067e-05
 Reference value :  9.30083e-05
 Reference value :  9.30091e-05
 Reference value :  9.30111e-05
 Reference value :  9.30145e-05
 Reference value :  9.30276e-05
 Reference value :  9.30783e-05
 Reference value :  9.32501e-05
 Reference value :  9.32501e-05
 Reference value :  9.32502e-05
 Reference value :  9.32502e-05
 Reference value :  9.32503e-05
 Reference value :  9.32506e-05
 Reference value :  9.32512e-05
 Reference value :  9.32517e-05
 Reference value :  9.32527e-05
 Reference value :  9.32544e-05
 Reference value :  9.32553e-05
 Reference value :  9.32563e-05
 Reference value :  9.32590e-05
 Reference value :  9.32606e-05
 Reference value :  9.32671e-05
 Reference value :  9.32858e-05
 Reference value :  9.34277e-05
No. of Data Rows : 13633
ngspice-44 done
