
Note: Compatibility modes selected: hs a


Circuit: ** sch_path: /home/ece/cace/sar-adc-using-sky130-pdk/runs/run_2025-09-13_02-18-31/parameters/sndr/run_2/sndr_enob_fom.sch

option SCALE: Scale is set to 1e-06 for instance and model parameters
option SCALE: Scale is set to 1e-06 for instance and model parameters
option SCALE: Scale is set to 1e-06 for instance and model parameters
option SCALE: Scale is set to 1e-06 for instance and model parameters
Doing analysis at TEMP = 27.000000 and TNOM = 27.000000

Using KLU as Direct Linear Solver
Operating point simulation skipped by 'uic',
  now using transient initial conditions.
 Reference value :  1.00000e-12
 Reference value :  1.07567e-12
 Reference value :  1.61310e-12
 Reference value :  5.92725e-12
 Reference value :  1.89568e-11
 Reference value :  1.00000e-10
 Reference value :  1.32511e-10
 Reference value :  6.55500e-10
 Reference value :  1.79795e-09
 Reference value :  5.05177e-09
 Reference value :  6.61249e-09
 Reference value :  7.84568e-09
 Reference value :  9.24582e-09
 Reference value :  1.04495e-08
 Reference value :  2.00213e-08
 Reference value :  2.64704e-08
 Reference value :  5.17731e-08
 Reference value :  2.21422e-07
 Reference value :  2.50170e-07
 Reference value :  2.50311e-07
 Reference value :  2.50957e-07
 Reference value :  2.52121e-07
 Reference value :  2.53256e-07
 Reference value :  2.54259e-07
 Reference value :  2.58747e-07
 Reference value :  4.02944e-07
 Reference value :  5.00100e-07
 Reference value :  5.00338e-07
 Reference value :  5.01575e-07
 Reference value :  5.03446e-07
 Reference value :  5.06613e-07
 Reference value :  5.11637e-07
 Reference value :  5.22853e-07
 Reference value :  6.34103e-07
 Reference value :  7.50170e-07
 Reference value :  7.50320e-07
 Reference value :  7.51397e-07
 Reference value :  7.53450e-07
 Reference value :  7.55035e-07
 Reference value :  7.58107e-07
 Reference value :  8.53113e-07
 Reference value :  1.00003e-06
 Reference value :  1.00012e-06
 Reference value :  1.00034e-06
 Reference value :  1.00119e-06
 Reference value :  1.00201e-06
 Reference value :  1.00289e-06
 Reference value :  1.00450e-06
 Reference value :  1.00554e-06
 Reference value :  1.00845e-06
 Reference value :  1.01119e-06
 Reference value :  1.01324e-06
 Reference value :  1.01525e-06
 Reference value :  1.01916e-06
 Reference value :  1.04994e-06
 Reference value :  1.25011e-06
 Reference value :  1.25020e-06
 Reference value :  1.25021e-06
 Reference value :  1.25026e-06
 Reference value :  1.25069e-06
 Reference value :  1.25140e-06
 Reference value :  1.25230e-06
 Reference value :  1.25346e-06
 Reference value :  1.25532e-06
 Reference value :  1.25914e-06
 Reference value :  1.28971e-06
 Reference value :  1.50001e-06
 Reference value :  1.50007e-06
 Reference value :  1.50011e-06
 Reference value :  1.50016e-06
 Reference value :  1.50052e-06
 Reference value :  1.50158e-06
 Reference value :  1.50289e-06
 Reference value :  1.50399e-06
 Reference value :  1.50616e-06
 Reference value :  1.50771e-06
 Reference value :  1.51250e-06
 Reference value :  1.54794e-06
 Reference value :  1.75011e-06
 Reference value :  1.75021e-06
 Reference value :  1.75045e-06
 Reference value :  1.75140e-06
 Reference value :  1.75230e-06
 Reference value :  1.75345e-06
 Reference value :  1.75449e-06
 Reference value :  1.75580e-06
 Reference value :  1.76031e-06
 Reference value :  1.78272e-06
 Reference value :  1.96046e-06
 Reference value :  2.00003e-06
 Reference value :  2.00011e-06
 Reference value :  2.00022e-06
 Reference value :  2.00083e-06
 Reference value :  2.00158e-06
 Reference value :  2.00289e-06
 Reference value :  2.00450e-06
 Reference value :  2.00554e-06
 Reference value :  2.00846e-06
 Reference value :  2.01120e-06
 Reference value :  2.01323e-06
 Reference value :  2.01525e-06
 Reference value :  2.01914e-06
 Reference value :  2.03631e-06
 Reference value :  2.21289e-06
 Reference value :  2.25017e-06
 Reference value :  2.25032e-06
 Reference value :  2.25098e-06
 Reference value :  2.25186e-06
 Reference value :  2.25345e-06
 Reference value :  2.25461e-06
 Reference value :  2.25743e-06
 Reference value :  2.27254e-06
 Reference value :  2.48998e-06
 Reference value :  2.50003e-06
 Reference value :  2.50011e-06
 Reference value :  2.50022e-06
 Reference value :  2.50083e-06
 Reference value :  2.50158e-06
 Reference value :  2.50290e-06
 Reference value :  2.50399e-06
 Reference value :  2.50552e-06
 Reference value :  2.50616e-06
 Reference value :  2.50771e-06
 Reference value :  2.51086e-06
 Reference value :  2.52987e-06
 Reference value :  2.75010e-06
 Reference value :  2.75020e-06
 Reference value :  2.75032e-06
 Reference value :  2.75098e-06
 Reference value :  2.75186e-06
 Reference value :  2.75299e-06
 Reference value :  2.75397e-06
 Reference value :  2.75502e-06
 Reference value :  2.75825e-06
 Reference value :  2.78257e-06
 Reference value :  3.00000e-06
 Reference value :  3.00010e-06
 Reference value :  3.00022e-06
 Reference value :  3.00083e-06
 Reference value :  3.00158e-06
 Reference value :  3.00289e-06
 Reference value :  3.00450e-06
 Reference value :  3.00554e-06
 Reference value :  3.00846e-06
 Reference value :  3.01120e-06
 Reference value :  3.01323e-06
 Reference value :  3.01525e-06
 Reference value :  3.01914e-06
 Reference value :  3.03628e-06
 Reference value :  3.07992e-06
 Reference value :  3.10039e-06
 Reference value :  3.11750e-06
 Reference value :  3.12852e-06
 Reference value :  3.13415e-06
 Reference value :  3.14528e-06
 Reference value :  3.18698e-06
 Reference value :  3.25011e-06
 Reference value :  3.25020e-06
 Reference value :  3.25032e-06
 Reference value :  3.25069e-06
 Reference value :  3.25140e-06
 Reference value :  3.25230e-06
 Reference value :  3.25345e-06
 Reference value :  3.25461e-06
 Reference value :  3.25741e-06
 Reference value :  3.27244e-06
 Reference value :  3.48853e-06
 Reference value :  3.50007e-06
 Reference value :  3.50016e-06
 Reference value :  3.50052e-06
 Reference value :  3.50158e-06
 Reference value :  3.50290e-06
 Reference value :  3.50399e-06
 Reference value :  3.50616e-06
 Reference value :  3.50771e-06
 Reference value :  3.51086e-06
 Reference value :  3.52959e-06
 Reference value :  3.75010e-06
 Reference value :  3.75017e-06
 Reference value :  3.75022e-06
 Reference value :  3.75045e-06
 Reference value :  3.75098e-06
 Reference value :  3.75186e-06
 Reference value :  3.75299e-06
 Reference value :  3.75344e-06
 Reference value :  3.75448e-06
 Reference value :  3.75580e-06
 Reference value :  3.75824e-06
 Reference value :  3.76991e-06
 Reference value :  3.80763e-06
 Reference value :  4.00000e-06
 Reference value :  4.00003e-06
 Reference value :  4.00010e-06
 Reference value :  4.00016e-06
 Reference value :  4.00034e-06
 Reference value :  4.00083e-06
 Reference value :  4.00158e-06
 Reference value :  4.00289e-06
 Reference value :  4.00396e-06
 Reference value :  4.00500e-06
 Reference value :  4.00631e-06
 Reference value :  4.00846e-06
 Reference value :  4.01120e-06
 Reference value :  4.01223e-06
 Reference value :  4.01428e-06
 Reference value :  4.01524e-06
 Reference value :  4.01738e-06
 Reference value :  4.02075e-06
 Reference value :  4.03359e-06
 Reference value :  4.04167e-06
 Reference value :  4.05073e-06
 Reference value :  4.06192e-06
 Reference value :  4.08723e-06
 Reference value :  4.14311e-06
 Reference value :  4.25011e-06
 Reference value :  4.25020e-06
 Reference value :  4.25026e-06
 Reference value :  4.25069e-06
 Reference value :  4.25140e-06
 Reference value :  4.25229e-06
 Reference value :  4.25343e-06
 Reference value :  4.25455e-06
 Reference value :  4.25595e-06
 Reference value :  4.26148e-06
 Reference value :  4.28575e-06
 Reference value :  4.42597e-06
 Reference value :  4.50000e-06
 Reference value :  4.50003e-06
 Reference value :  4.50010e-06
 Reference value :  4.50012e-06
 Reference value :  4.50022e-06
 Reference value :  4.50052e-06
 Reference value :  4.50119e-06
 Reference value :  4.50195e-06
 Reference value :  4.50282e-06
 Reference value :  4.50389e-06
 Reference value :  4.50537e-06
 Reference value :  4.50599e-06
 Reference value :  4.50750e-06
 Reference value :  4.50925e-06
 Reference value :  4.51029e-06
 Reference value :  4.51670e-06
 Reference value :  4.53163e-06
 Reference value :  4.53812e-06
 Reference value :  4.55629e-06
 Reference value :  4.62151e-06
 Reference value :  4.66322e-06
 Reference value :  4.75011e-06
 Reference value :  4.75020e-06
 Reference value :  4.75032e-06
 Reference value :  4.75098e-06
 Reference value :  4.75186e-06
 Reference value :  4.75299e-06
 Reference value :  4.75345e-06
 Reference value :  4.75448e-06
 Reference value :  4.75578e-06
 Reference value :  4.76025e-06
 Reference value :  4.78210e-06
 Reference value :  4.95525e-06
 Reference value :  5.00003e-06
 Reference value :  5.00010e-06
 Reference value :  5.00016e-06
 Reference value :  5.00034e-06
 Reference value :  5.00083e-06
 Reference value :  5.00158e-06
 Reference value :  5.00242e-06
 Reference value :  5.00341e-06
 Reference value :  5.00450e-06
 Reference value :  5.00554e-06
 Reference value :  5.00710e-06
 Reference value :  5.00997e-06
 Reference value :  5.01120e-06
 Reference value :  5.01323e-06
 Reference value :  5.01524e-06
 Reference value :  5.01737e-06
 Reference value :  5.02074e-06
 Reference value :  5.02770e-06
 Reference value :  5.03101e-06
 Reference value :  5.03650e-06
 Reference value :  5.04280e-06
 Reference value :  5.05360e-06
 Reference value :  5.07292e-06
 Reference value :  5.19848e-06
 Reference value :  5.25013e-06
 Reference value :  5.25021e-06
 Reference value :  5.25032e-06
 Reference value :  5.25069e-06
 Reference value :  5.25140e-06
 Reference value :  5.25229e-06
 Reference value :  5.25343e-06
 Reference value :  5.25456e-06
 Reference value :  5.25595e-06
 Reference value :  5.25879e-06
 Reference value :  5.27191e-06
 Reference value :  5.36923e-06
 Reference value :  5.50001e-06
 Reference value :  5.50010e-06
 Reference value :  5.50016e-06
 Reference value :  5.50034e-06
 Reference value :  5.50083e-06
 Reference value :  5.50154e-06
 Reference value :  5.50235e-06
 Reference value :  5.50282e-06
 Reference value :  5.50333e-06
 Reference value :  5.50464e-06
 Reference value :  5.50598e-06
 Reference value :  5.50749e-06
 Reference value :  5.51028e-06
 Reference value :  5.52223e-06
 Reference value :  5.64402e-06
 Reference value :  5.75017e-06
 Reference value :  5.75026e-06
 Reference value :  5.75069e-06
 Reference value :  5.75140e-06
 Reference value :  5.75229e-06
 Reference value :  5.75344e-06
 Reference value :  5.75448e-06
 Reference value :  5.75579e-06
 Reference value :  5.75836e-06
 Reference value :  5.76105e-06
 Reference value :  5.78981e-06
 Reference value :  6.00000e-06
 Reference value :  6.00007e-06
 Reference value :  6.00012e-06
 Reference value :  6.00034e-06
 Reference value :  6.00119e-06
 Reference value :  6.00201e-06
 Reference value :  6.00290e-06
 Reference value :  6.00390e-06
 Reference value :  6.00484e-06
 Reference value :  6.00664e-06
 Reference value :  6.00758e-06
 Reference value :  6.00933e-06
 Reference value :  6.01016e-06
 Reference value :  6.01189e-06
 Reference value :  6.01349e-06
 Reference value :  6.01525e-06
 Reference value :  6.01877e-06
 Reference value :  6.02629e-06
 Reference value :  6.03198e-06
 Reference value :  6.04842e-06
 Reference value :  6.08750e-06
 Reference value :  6.12481e-06
 Reference value :  6.25011e-06
 Reference value :  6.25020e-06
 Reference value :  6.25032e-06
 Reference value :  6.25098e-06
 Reference value :  6.25186e-06
 Reference value :  6.25299e-06
 Reference value :  6.25396e-06
 Reference value :  6.25601e-06
 Reference value :  6.26544e-06
 Reference value :  6.37569e-06
 Reference value :  6.50003e-06
 Reference value :  6.50011e-06
 Reference value :  6.50022e-06
 Reference value :  6.50083e-06
 Reference value :  6.50154e-06
 Reference value :  6.50282e-06
 Reference value :  6.50388e-06
 Reference value :  6.50536e-06
 Reference value :  6.50598e-06
 Reference value :  6.50749e-06
 Reference value :  6.51028e-06
 Reference value :  6.52218e-06
 Reference value :  6.64316e-06
 Reference value :  6.75017e-06
 Reference value :  6.75026e-06
 Reference value :  6.75069e-06
 Reference value :  6.75139e-06
 Reference value :  6.75299e-06
 Reference value :  6.75397e-06
 Reference value :  6.75502e-06
 Reference value :  6.75749e-06
 Reference value :  6.76102e-06
 Reference value :  6.78948e-06
 Reference value :  7.00000e-06
 Reference value :  7.00007e-06
 Reference value :  7.00016e-06
 Reference value :  7.00052e-06
 Reference value :  7.00119e-06
 Reference value :  7.00201e-06
 Reference value :  7.00290e-06
 Reference value :  7.00390e-06
 Reference value :  7.00484e-06
 Reference value :  7.00664e-06
 Reference value :  7.00850e-06
 Reference value :  7.01016e-06
 Reference value :  7.01188e-06
 Reference value :  7.01442e-06
 Reference value :  7.01644e-06
 Reference value :  7.02102e-06
 Reference value :  7.02771e-06
 Reference value :  7.05819e-06
 Reference value :  7.12077e-06
 Reference value :  7.25010e-06
 Reference value :  7.25013e-06
 Reference value :  7.25021e-06
 Reference value :  7.25032e-06
 Reference value :  7.25069e-06
 Reference value :  7.25140e-06
 Reference value :  7.25229e-06
 Reference value :  7.25344e-06
 Reference value :  7.25463e-06
 Reference value :  7.25749e-06
 Reference value :  7.26544e-06
 Reference value :  7.28748e-06
 Reference value :  7.49323e-06
 Reference value :  7.50003e-06
 Reference value :  7.50011e-06
 Reference value :  7.50022e-06
 Reference value :  7.50052e-06
 Reference value :  7.50119e-06
 Reference value :  7.50195e-06
 Reference value :  7.50282e-06
 Reference value :  7.50389e-06
 Reference value :  7.50536e-06
 Reference value :  7.50598e-06
 Reference value :  7.50749e-06
 Reference value :  7.51028e-06
 Reference value :  7.51667e-06
 Reference value :  7.57909e-06
 Reference value :  7.75011e-06
 Reference value :  7.75017e-06
 Reference value :  7.75022e-06
 Reference value :  7.75045e-06
 Reference value :  7.75098e-06
 Reference value :  7.75139e-06
 Reference value :  7.75229e-06
 Reference value :  7.75298e-06
 Reference value :  7.75344e-06
 Reference value :  7.75447e-06
 Reference value :  7.75578e-06
 Reference value :  7.75749e-06
 Reference value :  7.75961e-06
 Reference value :  7.77460e-06
 Reference value :  7.87723e-06
 Reference value :  8.00001e-06
 Reference value :  8.00010e-06
 Reference value :  8.00016e-06
 Reference value :  8.00052e-06
 Reference value :  8.00119e-06
 Reference value :  8.00158e-06
 Reference value :  8.00242e-06
 Reference value :  8.00342e-06
 Reference value :  8.00389e-06
 Reference value :  8.00484e-06
 Reference value :  8.00663e-06
 Reference value :  8.00908e-06
 Reference value :  8.01297e-06
 Reference value :  8.01696e-06
 Reference value :  8.02241e-06
 Reference value :  8.02852e-06
 Reference value :  8.03500e-06
 Reference value :  8.04519e-06
 Reference value :  8.06844e-06
 Reference value :  8.14453e-06
 Reference value :  8.25011e-06
 Reference value :  8.25017e-06
 Reference value :  8.25021e-06
 Reference value :  8.25032e-06
 Reference value :  8.25070e-06
 Reference value :  8.25139e-06
 Reference value :  8.25228e-06
 Reference value :  8.25364e-06
 Reference value :  8.25535e-06
 Reference value :  8.25768e-06
 Reference value :  8.27499e-06
 Reference value :  8.50000e-06
 Reference value :  8.50007e-06
 Reference value :  8.50012e-06
 Reference value :  8.50035e-06
 Reference value :  8.50135e-06
 Reference value :  8.50283e-06
 Reference value :  8.50392e-06
 Reference value :  8.50489e-06
 Reference value :  8.50735e-06
 Reference value :  8.52169e-06
 Reference value :  8.52578e-06
 Reference value :  8.53144e-06
 Reference value :  8.53568e-06
 Reference value :  8.54573e-06
 Reference value :  8.55703e-06
 Reference value :  8.59069e-06
 Reference value :  8.69881e-06
 Reference value :  8.75013e-06
 Reference value :  8.75021e-06
 Reference value :  8.75032e-06
 Reference value :  8.75098e-06
 Reference value :  8.75185e-06
 Reference value :  8.75342e-06
 Reference value :  8.75455e-06
 Reference value :  8.75729e-06
 Reference value :  8.77141e-06
 Reference value :  8.97148e-06
 Reference value :  9.00007e-06
 Reference value :  9.00012e-06
 Reference value :  9.00034e-06
 Reference value :  9.00119e-06
 Reference value :  9.00201e-06
 Reference value :  9.00289e-06
 Reference value :  9.00472e-06
 Reference value :  9.00655e-06
 Reference value :  9.00902e-06
 Reference value :  9.01151e-06
 Reference value :  9.01410e-06
 Reference value :  9.01797e-06
 Reference value :  9.05082e-06
 Reference value :  9.25010e-06
 Reference value :  9.25017e-06
 Reference value :  9.25022e-06
 Reference value :  9.25045e-06
 Reference value :  9.25139e-06
 Reference value :  9.25229e-06
 Reference value :  9.25344e-06
 Reference value :  9.25447e-06
 Reference value :  9.25578e-06
 Reference value :  9.26024e-06
 Reference value :  9.30693e-06
 Reference value :  9.50001e-06
 Reference value :  9.50010e-06
 Reference value :  9.50016e-06
 Reference value :  9.50052e-06
 Reference value :  9.50158e-06
 Reference value :  9.50289e-06
 Reference value :  9.50450e-06
 Reference value :  9.50554e-06
 Reference value :  9.50845e-06
 Reference value :  9.51119e-06
 Reference value :  9.51323e-06
 Reference value :  9.51525e-06
 Reference value :  9.51740e-06
 Reference value :  9.52399e-06
 Reference value :  9.54987e-06
 Reference value :  9.69106e-06
 Reference value :  9.75013e-06
 Reference value :  9.75021e-06
 Reference value :  9.75032e-06
 Reference value :  9.75098e-06
 Reference value :  9.75186e-06
 Reference value :  9.75299e-06
 Reference value :  9.75398e-06
 Reference value :  9.75524e-06
 Reference value :  9.75889e-06
 Reference value :  9.78677e-06
 Reference value :  1.00000e-05
 Reference value :  1.00001e-05
 Reference value :  1.00001e-05
 Reference value :  1.00003e-05
 Reference value :  1.00012e-05
 Reference value :  1.00020e-05
 Reference value :  1.00029e-05
 Reference value :  1.00047e-05
 Reference value :  1.00062e-05
 Reference value :  1.00086e-05
 Reference value :  1.00155e-05
 Reference value :  1.01512e-05
 Reference value :  1.02502e-05
 Reference value :  1.02502e-05
 Reference value :  1.02507e-05
 Reference value :  1.02514e-05
 Reference value :  1.02530e-05
 Reference value :  1.02540e-05
 Reference value :  1.02550e-05
 Reference value :  1.02582e-05
 Reference value :  1.02823e-05
 Reference value :  1.04573e-05
 Reference value :  1.05000e-05
 Reference value :  1.05001e-05
 Reference value :  1.05002e-05
 Reference value :  1.05008e-05
 Reference value :  1.05016e-05
 Reference value :  1.05024e-05
 Reference value :  1.05034e-05
 Reference value :  1.05045e-05
 Reference value :  1.05050e-05
 Reference value :  1.05071e-05
 Reference value :  1.05100e-05
 Reference value :  1.05112e-05
 Reference value :  1.05122e-05
 Reference value :  1.05143e-05
 Reference value :  1.05153e-05
 Reference value :  1.05174e-05
 Reference value :  1.05288e-05
 Reference value :  1.07077e-05
 Reference value :  1.07502e-05
 Reference value :  1.07502e-05
 Reference value :  1.07504e-05
 Reference value :  1.07510e-05
 Reference value :  1.07519e-05
 Reference value :  1.07530e-05
 Reference value :  1.07540e-05
 Reference value :  1.07560e-05
 Reference value :  1.07652e-05
 Reference value :  1.08729e-05
 Reference value :  1.10000e-05
 Reference value :  1.10001e-05
 Reference value :  1.10002e-05
 Reference value :  1.10008e-05
 Reference value :  1.10016e-05
 Reference value :  1.10029e-05
 Reference value :  1.10040e-05
 Reference value :  1.10055e-05
 Reference value :  1.10062e-05
 Reference value :  1.10077e-05
 Reference value :  1.10109e-05
 Reference value :  1.10204e-05
 Reference value :  1.11512e-05
 Reference value :  1.12501e-05
 Reference value :  1.12502e-05
 Reference value :  1.12503e-05
 Reference value :  1.12510e-05
 Reference value :  1.12523e-05
 Reference value :  1.12534e-05
 Reference value :  1.12550e-05
 Reference value :  1.12566e-05
 Reference value :  1.12699e-05
 Reference value :  1.14574e-05
 Reference value :  1.15001e-05
 Reference value :  1.15002e-05
 Reference value :  1.15005e-05
 Reference value :  1.15012e-05
 Reference value :  1.15020e-05
 Reference value :  1.15029e-05
 Reference value :  1.15040e-05
 Reference value :  1.15050e-05
 Reference value :  1.15071e-05
 Reference value :  1.15100e-05
 Reference value :  1.15112e-05
 Reference value :  1.15132e-05
 Reference value :  1.15152e-05
 Reference value :  1.15174e-05
 Reference value :  1.15288e-05
 Reference value :  1.15649e-05
 Reference value :  1.15903e-05
 Reference value :  1.16177e-05
 Reference value :  1.16286e-05
 Reference value :  1.16343e-05
 Reference value :  1.16452e-05
 Reference value :  1.16856e-05
 Reference value :  1.17501e-05
 Reference value :  1.17502e-05
 Reference value :  1.17503e-05
 Reference value :  1.17510e-05
 Reference value :  1.17523e-05
 Reference value :  1.17535e-05
 Reference value :  1.17546e-05
 Reference value :  1.17574e-05
 Reference value :  1.17724e-05
 Reference value :  1.19872e-05
 Reference value :  1.20001e-05
 Reference value :  1.20002e-05
 Reference value :  1.20005e-05
 Reference value :  1.20012e-05
 Reference value :  1.20020e-05
 Reference value :  1.20029e-05
 Reference value :  1.20040e-05
 Reference value :  1.20055e-05
 Reference value :  1.20062e-05
 Reference value :  1.20077e-05
 Reference value :  1.20109e-05
 Reference value :  1.20292e-05
 Reference value :  1.22501e-05
 Reference value :  1.22502e-05
 Reference value :  1.22502e-05
 Reference value :  1.22504e-05
 Reference value :  1.22514e-05
 Reference value :  1.22530e-05
 Reference value :  1.22540e-05
 Reference value :  1.22550e-05
 Reference value :  1.22566e-05
 Reference value :  1.22636e-05
 Reference value :  1.23573e-05
 Reference value :  1.25000e-05
 Reference value :  1.25001e-05
 Reference value :  1.25002e-05
 Reference value :  1.25005e-05
 Reference value :  1.25012e-05
 Reference value :  1.25016e-05
 Reference value :  1.25024e-05
 Reference value :  1.25029e-05
 Reference value :  1.25040e-05
 Reference value :  1.25050e-05
 Reference value :  1.25063e-05
 Reference value :  1.25085e-05
 Reference value :  1.25112e-05
 Reference value :  1.25122e-05
 Reference value :  1.25152e-05
 Reference value :  1.25208e-05
 Reference value :  1.25335e-05
 Reference value :  1.25464e-05
 Reference value :  1.25750e-05
 Reference value :  1.26433e-05
 Reference value :  1.27501e-05
 Reference value :  1.27502e-05
 Reference value :  1.27503e-05
 Reference value :  1.27514e-05
 Reference value :  1.27530e-05
 Reference value :  1.27539e-05
 Reference value :  1.27553e-05
 Reference value :  1.27588e-05
 Reference value :  1.27857e-05
 Reference value :  1.29281e-05
 Reference value :  1.30000e-05
 Reference value :  1.30001e-05
 Reference value :  1.30003e-05
 Reference value :  1.30012e-05
 Reference value :  1.30019e-05
 Reference value :  1.30028e-05
 Reference value :  1.30039e-05
 Reference value :  1.30053e-05
 Reference value :  1.30060e-05
 Reference value :  1.30075e-05
 Reference value :  1.30103e-05
 Reference value :  1.30223e-05
 Reference value :  1.30445e-05
 Reference value :  1.30689e-05
 Reference value :  1.31203e-05
 Reference value :  1.32449e-05
 Reference value :  1.32501e-05
 Reference value :  1.32502e-05
 Reference value :  1.32503e-05
 Reference value :  1.32510e-05
 Reference value :  1.32514e-05
 Reference value :  1.32530e-05
 Reference value :  1.32540e-05
 Reference value :  1.32558e-05
 Reference value :  1.32635e-05
 Reference value :  1.33557e-05
 Reference value :  1.35000e-05
 Reference value :  1.35002e-05
 Reference value :  1.35005e-05
 Reference value :  1.35016e-05
 Reference value :  1.35029e-05
 Reference value :  1.35040e-05
 Reference value :  1.35050e-05
 Reference value :  1.35071e-05
 Reference value :  1.35112e-05
 Reference value :  1.35132e-05
 Reference value :  1.35152e-05
 Reference value :  1.35174e-05
 Reference value :  1.35208e-05
 Reference value :  1.35278e-05
 Reference value :  1.35311e-05
 Reference value :  1.35366e-05
 Reference value :  1.35397e-05
 Reference value :  1.35483e-05
 Reference value :  1.35596e-05
 Reference value :  1.35871e-05
 Reference value :  1.37002e-05
 Reference value :  1.37501e-05
 Reference value :  1.37502e-05
 Reference value :  1.37503e-05
 Reference value :  1.37510e-05
 Reference value :  1.37519e-05
 Reference value :  1.37530e-05
 Reference value :  1.37539e-05
 Reference value :  1.37559e-05
 Reference value :  1.37649e-05
 Reference value :  1.38678e-05
 Reference value :  1.40000e-05
 Reference value :  1.40001e-05
 Reference value :  1.40002e-05
 Reference value :  1.40008e-05
 Reference value :  1.40015e-05
 Reference value :  1.40028e-05
 Reference value :  1.40054e-05
 Reference value :  1.40066e-05
 Reference value :  1.40084e-05
 Reference value :  1.40103e-05
 Reference value :  1.40167e-05
 Reference value :  1.40793e-05
 Reference value :  1.42502e-05
 Reference value :  1.42503e-05
 Reference value :  1.42507e-05
 Reference value :  1.42514e-05
 Reference value :  1.42530e-05
 Reference value :  1.42540e-05
 Reference value :  1.42550e-05
 Reference value :  1.42566e-05
 Reference value :  1.42596e-05
 Reference value :  1.42898e-05
 Reference value :  1.45000e-05
 Reference value :  1.45001e-05
 Reference value :  1.45005e-05
 Reference value :  1.45016e-05
 Reference value :  1.45029e-05
 Reference value :  1.45039e-05
 Reference value :  1.45048e-05
 Reference value :  1.45066e-05
 Reference value :  1.45093e-05
 Reference value :  1.45102e-05
 Reference value :  1.45119e-05
 Reference value :  1.45135e-05
 Reference value :  1.45153e-05
 Reference value :  1.45173e-05
 Reference value :  1.45188e-05
 Reference value :  1.45236e-05
 Reference value :  1.45290e-05
 Reference value :  1.45408e-05
 Reference value :  1.45755e-05
 Reference value :  1.45872e-05
 Reference value :  1.46107e-05
 Reference value :  1.46517e-05
 Reference value :  1.47501e-05
 Reference value :  1.47502e-05
 Reference value :  1.47502e-05
 Reference value :  1.47503e-05
 Reference value :  1.47504e-05
 Reference value :  1.47510e-05
 Reference value :  1.47514e-05
 Reference value :  1.47523e-05
 Reference value :  1.47534e-05
 Reference value :  1.47546e-05
 Reference value :  1.47560e-05
 Reference value :  1.47590e-05
 Reference value :  1.47654e-05
 Reference value :  1.48169e-05
 Reference value :  1.50000e-05
 Reference value :  1.50000e-05
 Reference value :  1.50001e-05
 Reference value :  1.50002e-05
 Reference value :  1.50003e-05
 Reference value :  1.50008e-05
 Reference value :  1.50015e-05
 Reference value :  1.50023e-05
 Reference value :  1.50033e-05
 Reference value :  1.50046e-05
 Reference value :  1.50060e-05
 Reference value :  1.50075e-05
 Reference value :  1.50092e-05
 Reference value :  1.50103e-05
 Reference value :  1.50167e-05
 Reference value :  1.50474e-05
 Reference value :  1.52501e-05
 Reference value :  1.52502e-05
 Reference value :  1.52503e-05
 Reference value :  1.52507e-05
 Reference value :  1.52514e-05
 Reference value :  1.52523e-05
 Reference value :  1.52534e-05
 Reference value :  1.52545e-05
 Reference value :  1.52558e-05
 Reference value :  1.52575e-05
 Reference value :  1.52596e-05
 Reference value :  1.52673e-05
 Reference value :  1.53190e-05
 Reference value :  1.54962e-05
 Reference value :  1.55001e-05
 Reference value :  1.55001e-05
 Reference value :  1.55001e-05
 Reference value :  1.55002e-05
 Reference value :  1.55004e-05
 Reference value :  1.55011e-05
 Reference value :  1.55019e-05
 Reference value :  1.55027e-05
 Reference value :  1.55037e-05
 Reference value :  1.55046e-05
 Reference value :  1.55051e-05
 Reference value :  1.55062e-05
 Reference value :  1.55082e-05
 Reference value :  1.55090e-05
 Reference value :  1.55109e-05
 Reference value :  1.55140e-05
 Reference value :  1.55159e-05
 Reference value :  1.55199e-05
 Reference value :  1.55254e-05
 Reference value :  1.55602e-05
 Reference value :  1.55962e-05
 Reference value :  1.56566e-05
 Reference value :  1.57501e-05
 Reference value :  1.57502e-05
 Reference value :  1.57502e-05
 Reference value :  1.57503e-05
 Reference value :  1.57507e-05
 Reference value :  1.57514e-05
 Reference value :  1.57523e-05
 Reference value :  1.57530e-05
 Reference value :  1.57534e-05
 Reference value :  1.57546e-05
 Reference value :  1.57575e-05
 Reference value :  1.57653e-05
 Reference value :  1.57872e-05
 Reference value :  1.59916e-05
 Reference value :  1.60000e-05
 Reference value :  1.60001e-05
 Reference value :  1.60002e-05
 Reference value :  1.60003e-05
 Reference value :  1.60008e-05
 Reference value :  1.60015e-05
 Reference value :  1.60028e-05
 Reference value :  1.60039e-05
 Reference value :  1.60054e-05
 Reference value :  1.60060e-05
 Reference value :  1.60075e-05
 Reference value :  1.60103e-05
 Reference value :  1.60222e-05
 Reference value :  1.61428e-05
 Reference value :  1.62501e-05
 Reference value :  1.62502e-05
 Reference value :  1.62503e-05
 Reference value :  1.62507e-05
 Reference value :  1.62514e-05
 Reference value :  1.62523e-05
 Reference value :  1.62534e-05
 Reference value :  1.62545e-05
 Reference value :  1.62558e-05
 Reference value :  1.62575e-05
 Reference value :  1.62596e-05
 Reference value :  1.62671e-05
 Reference value :  1.63172e-05
 Reference value :  1.65000e-05
 Reference value :  1.65000e-05
 Reference value :  1.65001e-05
 Reference value :  1.65002e-05
 Reference value :  1.65003e-05
 Reference value :  1.65008e-05
 Reference value :  1.65016e-05
 Reference value :  1.65024e-05
 Reference value :  1.65029e-05
 Reference value :  1.65039e-05
 Reference value :  1.65048e-05
 Reference value :  1.65066e-05
 Reference value :  1.65091e-05
 Reference value :  1.65130e-05
 Reference value :  1.65194e-05
 Reference value :  1.65224e-05
 Reference value :  1.65295e-05
 Reference value :  1.65360e-05
 Reference value :  1.65579e-05
 Reference value :  1.66016e-05
 Reference value :  1.67501e-05
 Reference value :  1.67502e-05
 Reference value :  1.67502e-05
 Reference value :  1.67507e-05
 Reference value :  1.67514e-05
 Reference value :  1.67530e-05
 Reference value :  1.67545e-05
 Reference value :  1.67562e-05
 Reference value :  1.67619e-05
 Reference value :  1.68217e-05
 Reference value :  1.70021e-05
 Reference value :  1.70085e-05
 Reference value :  1.70189e-05
 Reference value :  1.70229e-05
 Reference value :  1.70257e-05
 Reference value :  1.70281e-05
 Reference value :  1.70316e-05
 Reference value :  1.70373e-05
 Reference value :  1.70429e-05
 Reference value :  1.70545e-05
 Reference value :  1.70913e-05
 Reference value :  1.72501e-05
 Reference value :  1.72502e-05
 Reference value :  1.72502e-05
 Reference value :  1.72504e-05
 Reference value :  1.72514e-05
 Reference value :  1.72518e-05
 Reference value :  1.72528e-05
 Reference value :  1.72538e-05
 Reference value :  1.72548e-05
 Reference value :  1.72565e-05
 Reference value :  1.72680e-05
 Reference value :  1.73217e-05
 Reference value :  1.75000e-05
 Reference value :  1.75001e-05
 Reference value :  1.75002e-05
 Reference value :  1.75003e-05
 Reference value :  1.75008e-05
 Reference value :  1.75016e-05
 Reference value :  1.75024e-05
 Reference value :  1.75034e-05
 Reference value :  1.75055e-05
 Reference value :  1.75065e-05
 Reference value :  1.75090e-05
 Reference value :  1.75115e-05
 Reference value :  1.75141e-05
 Reference value :  1.75179e-05
 Reference value :  1.75505e-05
 Reference value :  1.77501e-05
 Reference value :  1.77501e-05
 Reference value :  1.77502e-05
 Reference value :  1.77504e-05
 Reference value :  1.77510e-05
 Reference value :  1.77519e-05
 Reference value :  1.77530e-05
 Reference value :  1.77540e-05
 Reference value :  1.77550e-05
 Reference value :  1.77566e-05
 Reference value :  1.77697e-05
 Reference value :  1.79560e-05
 Reference value :  1.80007e-05
 Reference value :  1.80030e-05
 Reference value :  1.80044e-05
 Reference value :  1.80050e-05
 Reference value :  1.80062e-05
 Reference value :  1.80094e-05
 Reference value :  1.80121e-05
 Reference value :  1.80139e-05
 Reference value :  1.80158e-05
 Reference value :  1.80180e-05
 Reference value :  1.80253e-05
 Reference value :  1.80405e-05
 Reference value :  1.80910e-05
 Reference value :  1.82501e-05
 Reference value :  1.82501e-05
 Reference value :  1.82502e-05
 Reference value :  1.82502e-05
 Reference value :  1.82503e-05
 Reference value :  1.82507e-05
 Reference value :  1.82514e-05
 Reference value :  1.82523e-05
 Reference value :  1.82534e-05
 Reference value :  1.82545e-05
 Reference value :  1.82558e-05
 Reference value :  1.82612e-05
 Reference value :  1.82835e-05
 Reference value :  1.84622e-05
 Reference value :  1.85000e-05
 Reference value :  1.85001e-05
 Reference value :  1.85002e-05
 Reference value :  1.85008e-05
 Reference value :  1.85016e-05
 Reference value :  1.85024e-05
 Reference value :  1.85034e-05
 Reference value :  1.85055e-05
 Reference value :  1.85069e-05
 Reference value :  1.85086e-05
 Reference value :  1.85125e-05
 Reference value :  1.85466e-05
 Reference value :  1.87501e-05
 Reference value :  1.87502e-05
 Reference value :  1.87503e-05
 Reference value :  1.87510e-05
 Reference value :  1.87519e-05
 Reference value :  1.87530e-05
 Reference value :  1.87540e-05
 Reference value :  1.87550e-05
 Reference value :  1.87566e-05
 Reference value :  1.87637e-05
 Reference value :  1.88082e-05
 Reference value :  1.90000e-05
 Reference value :  1.90001e-05
 Reference value :  1.90002e-05
 Reference value :  1.90008e-05
 Reference value :  1.90020e-05
 Reference value :  1.90040e-05
 Reference value :  1.90055e-05
 Reference value :  1.90100e-05
 Reference value :  1.90122e-05
 Reference value :  1.90152e-05
 Reference value :  1.90236e-05
 Reference value :  1.91862e-05
 Reference value :  1.92502e-05
 Reference value :  1.92504e-05
 Reference value :  1.92514e-05
 Reference value :  1.92530e-05
 Reference value :  1.92546e-05
 Reference value :  1.92616e-05
 Reference value :  1.93728e-05
 Reference value :  1.95002e-05
 Reference value :  1.95009e-05
 Reference value :  1.95015e-05
 Reference value :  1.95027e-05
 Reference value :  1.95053e-05
 Reference value :  1.95065e-05
 Reference value :  1.95091e-05
 Reference value :  1.95167e-05
 Reference value :  1.97501e-05
 Reference value :  1.97502e-05
 Reference value :  1.97510e-05
 Reference value :  1.97530e-05
 Reference value :  1.97545e-05
 Reference value :  1.97582e-05
 Reference value :  1.98554e-05
 Reference value :  2.00001e-05
 Reference value :  2.00002e-05
 Reference value :  2.00008e-05
 Reference value :  2.00020e-05
 Reference value :  2.00034e-05
 Reference value :  2.00050e-05
 Reference value :  2.00071e-05
 Reference value :  2.00112e-05
 Reference value :  2.00143e-05
 Reference value :  2.00190e-05
 Reference value :  2.00474e-05
 Reference value :  2.00874e-05
 Reference value :  2.01169e-05
 Reference value :  2.01283e-05
 Reference value :  2.01347e-05
 Reference value :  2.01463e-05
 Reference value :  2.01711e-05
 Reference value :  2.02374e-05
 Reference value :  2.02501e-05
 Reference value :  2.02502e-05
 Reference value :  2.02503e-05
 Reference value :  2.02504e-05
 Reference value :  2.02510e-05
 Reference value :  2.02519e-05
 Reference value :  2.02530e-05
 Reference value :  2.02540e-05
 Reference value :  2.02552e-05
 Reference value :  2.02616e-05
 Reference value :  2.03154e-05
 Reference value :  2.05002e-05
 Reference value :  2.05009e-05
 Reference value :  2.05015e-05
 Reference value :  2.05023e-05
 Reference value :  2.05028e-05
 Reference value :  2.05039e-05
 Reference value :  2.05053e-05
 Reference value :  2.05059e-05
 Reference value :  2.05074e-05
 Reference value :  2.05092e-05
 Reference value :  2.05102e-05
 Reference value :  2.05166e-05
 Reference value :  2.05552e-05
 Reference value :  2.07501e-05
 Reference value :  2.07501e-05
 Reference value :  2.07502e-05
 Reference value :  2.07502e-05
 Reference value :  2.07503e-05
 Reference value :  2.07507e-05
 Reference value :  2.07514e-05
 Reference value :  2.07523e-05
 Reference value :  2.07534e-05
 Reference value :  2.07545e-05
 Reference value :  2.07558e-05
 Reference value :  2.07602e-05
 Reference value :  2.07820e-05
 Reference value :  2.09541e-05
 Reference value :  2.10000e-05
 Reference value :  2.10001e-05
 Reference value :  2.10002e-05
 Reference value :  2.10005e-05
 Reference value :  2.10012e-05
 Reference value :  2.10020e-05
 Reference value :  2.10029e-05
 Reference value :  2.10040e-05
 Reference value :  2.10050e-05
 Reference value :  2.10071e-05
 Reference value :  2.10100e-05
 Reference value :  2.10112e-05
 Reference value :  2.10132e-05
 Reference value :  2.10152e-05
 Reference value :  2.10173e-05
 Reference value :  2.10282e-05
 Reference value :  2.10327e-05
 Reference value :  2.10420e-05
 Reference value :  2.10574e-05
 Reference value :  2.10915e-05
 Reference value :  2.11962e-05
 Reference value :  2.12501e-05
 Reference value :  2.12502e-05
 Reference value :  2.12507e-05
 Reference value :  2.12514e-05
 Reference value :  2.12530e-05
 Reference value :  2.12539e-05
 Reference value :  2.12559e-05
 Reference value :  2.12615e-05
 Reference value :  2.13133e-05
 Reference value :  2.15000e-05
 Reference value :  2.15001e-05
 Reference value :  2.15001e-05
 Reference value :  2.15003e-05
 Reference value :  2.15012e-05
 Reference value :  2.15019e-05
 Reference value :  2.15028e-05
 Reference value :  2.15039e-05
 Reference value :  2.15053e-05
 Reference value :  2.15060e-05
 Reference value :  2.15075e-05
 Reference value :  2.15092e-05
 Reference value :  2.15114e-05
 Reference value :  2.15223e-05
 Reference value :  2.15812e-05
 Reference value :  2.16327e-05
 Reference value :  2.17299e-05
 Reference value :  2.17501e-05
 Reference value :  2.17502e-05
 Reference value :  2.17503e-05
 Reference value :  2.17507e-05
 Reference value :  2.17514e-05
 Reference value :  2.17523e-05
 Reference value :  2.17534e-05
 Reference value :  2.17545e-05
 Reference value :  2.17558e-05
 Reference value :  2.17602e-05
 Reference value :  2.17697e-05
 Reference value :  2.18563e-05
 Reference value :  2.20008e-05
 Reference value :  2.20024e-05
 Reference value :  2.20033e-05
 Reference value :  2.20050e-05
 Reference value :  2.20057e-05
 Reference value :  2.20074e-05
 Reference value :  2.20098e-05
 Reference value :  2.20109e-05
 Reference value :  2.20122e-05
 Reference value :  2.20130e-05
 Reference value :  2.20148e-05
 Reference value :  2.20169e-05
 Reference value :  2.20198e-05
 Reference value :  2.20270e-05
 Reference value :  2.20305e-05
 Reference value :  2.20336e-05
 Reference value :  2.20399e-05
 Reference value :  2.20495e-05
 Reference value :  2.20682e-05
 Reference value :  2.20910e-05
 Reference value :  2.21517e-05
 Reference value :  2.22501e-05
 Reference value :  2.22501e-05
 Reference value :  2.22502e-05
 Reference value :  2.22503e-05
 Reference value :  2.22507e-05
 Reference value :  2.22514e-05
 Reference value :  2.22523e-05
 Reference value :  2.22534e-05
 Reference value :  2.22552e-05
 Reference value :  2.22587e-05
 Reference value :  2.22717e-05
 Reference value :  2.24755e-05
 Reference value :  2.25000e-05
 Reference value :  2.25001e-05
 Reference value :  2.25002e-05
 Reference value :  2.25008e-05
 Reference value :  2.25015e-05
 Reference value :  2.25023e-05
 Reference value :  2.25028e-05
 Reference value :  2.25039e-05
 Reference value :  2.25054e-05
 Reference value :  2.25060e-05
 Reference value :  2.25075e-05
 Reference value :  2.25092e-05
 Reference value :  2.25114e-05
 Reference value :  2.25222e-05
 Reference value :  2.26435e-05
 Reference value :  2.27501e-05
 Reference value :  2.27502e-05
 Reference value :  2.27503e-05
 Reference value :  2.27510e-05
 Reference value :  2.27519e-05
 Reference value :  2.27530e-05
 Reference value :  2.27540e-05
 Reference value :  2.27550e-05
 Reference value :  2.27558e-05
 Reference value :  2.27583e-05
 Reference value :  2.27635e-05
 Reference value :  2.28172e-05
 Reference value :  2.30002e-05
 Reference value :  2.30008e-05
 Reference value :  2.30013e-05
 Reference value :  2.30026e-05
 Reference value :  2.30035e-05
 Reference value :  2.30045e-05
 Reference value :  2.30062e-05
 Reference value :  2.30090e-05
 Reference value :  2.30109e-05
 Reference value :  2.30129e-05
 Reference value :  2.30149e-05
 Reference value :  2.30170e-05
 Reference value :  2.30224e-05
 Reference value :  2.30284e-05
 Reference value :  2.30466e-05
 Reference value :  2.30848e-05
 Reference value :  2.31231e-05
 Reference value :  2.32501e-05
 Reference value :  2.32502e-05
 Reference value :  2.32503e-05
 Reference value :  2.32510e-05
 Reference value :  2.32519e-05
 Reference value :  2.32530e-05
 Reference value :  2.32539e-05
 Reference value :  2.32560e-05
 Reference value :  2.32617e-05
 Reference value :  2.33165e-05
 Reference value :  2.35000e-05
 Reference value :  2.35001e-05
 Reference value :  2.35001e-05
 Reference value :  2.35002e-05
 Reference value :  2.35008e-05
 Reference value :  2.35015e-05
 Reference value :  2.35023e-05
 Reference value :  2.35028e-05
 Reference value :  2.35039e-05
 Reference value :  2.35054e-05
 Reference value :  2.35060e-05
 Reference value :  2.35075e-05
 Reference value :  2.35103e-05
 Reference value :  2.35222e-05
 Reference value :  2.36426e-05
 Reference value :  2.37501e-05
 Reference value :  2.37502e-05
 Reference value :  2.37503e-05
 Reference value :  2.37510e-05
 Reference value :  2.37523e-05
 Reference value :  2.37534e-05
 Reference value :  2.37550e-05
 Reference value :  2.37566e-05
 Reference value :  2.37596e-05
 Reference value :  2.37744e-05
 Reference value :  2.39916e-05
 Reference value :  2.40000e-05
 Reference value :  2.40001e-05
 Reference value :  2.40002e-05
 Reference value :  2.40008e-05
 Reference value :  2.40016e-05
 Reference value :  2.40024e-05
 Reference value :  2.40034e-05
 Reference value :  2.40044e-05
 Reference value :  2.40053e-05
 Reference value :  2.40076e-05
 Reference value :  2.40102e-05
 Reference value :  2.40119e-05
 Reference value :  2.40144e-05
 Reference value :  2.40175e-05
 Reference value :  2.40245e-05
 Reference value :  2.40564e-05
 Reference value :  2.41236e-05
 Reference value :  2.42501e-05
 Reference value :  2.42502e-05
 Reference value :  2.42504e-05
 Reference value :  2.42514e-05
 Reference value :  2.42530e-05
 Reference value :  2.42540e-05
 Reference value :  2.42553e-05
 Reference value :  2.42590e-05
 Reference value :  2.42728e-05
 Reference value :  2.43757e-05
 Reference value :  2.45000e-05
 Reference value :  2.45001e-05
 Reference value :  2.45001e-05
 Reference value :  2.45003e-05
 Reference value :  2.45008e-05
 Reference value :  2.45015e-05
 Reference value :  2.45028e-05
 Reference value :  2.45046e-05
 Reference value :  2.45060e-05
 Reference value :  2.45075e-05
 Reference value :  2.45103e-05
 Reference value :  2.45221e-05
 Reference value :  2.46422e-05
 Reference value :  2.47502e-05
 Reference value :  2.47502e-05
 Reference value :  2.47504e-05
 Reference value :  2.47510e-05
 Reference value :  2.47514e-05
 Reference value :  2.47523e-05
 Reference value :  2.47534e-05
 Reference value :  2.47545e-05
 Reference value :  2.47558e-05
 Reference value :  2.47583e-05
 Reference value :  2.47610e-05
 Reference value :  2.47746e-05
 Reference value :  2.48772e-05
 Reference value :  2.50000e-05
 Reference value :  2.50001e-05
 Reference value :  2.50002e-05
 Reference value :  2.50008e-05
 Reference value :  2.50016e-05
 Reference value :  2.50024e-05
 Reference value :  2.50039e-05
 Reference value :  2.50048e-05
 Reference value :  2.50066e-05
 Reference value :  2.50082e-05
 Reference value :  2.50109e-05
 Reference value :  2.50196e-05
 Reference value :  2.50226e-05
 Reference value :  2.50260e-05
 Reference value :  2.50308e-05
 Reference value :  2.50374e-05
 Reference value :  2.50586e-05
 Reference value :  2.51060e-05
 Reference value :  2.52501e-05
 Reference value :  2.52501e-05
 Reference value :  2.52502e-05
 Reference value :  2.52502e-05
 Reference value :  2.52503e-05
 Reference value :  2.52504e-05
 Reference value :  2.52510e-05
 Reference value :  2.52514e-05
 Reference value :  2.52523e-05
 Reference value :  2.52536e-05
 Reference value :  2.52562e-05
 Reference value :  2.52577e-05
 Reference value :  2.52619e-05
 Reference value :  2.52750e-05
 Reference value :  2.53217e-05
 Reference value :  2.55000e-05
 Reference value :  2.55021e-05
 Reference value :  2.55064e-05
 Reference value :  2.55085e-05
 Reference value :  2.55132e-05
 Reference value :  2.55189e-05
 Reference value :  2.55229e-05
 Reference value :  2.55257e-05
 Reference value :  2.55281e-05
 Reference value :  2.55316e-05
 Reference value :  2.55373e-05
 Reference value :  2.55429e-05
 Reference value :  2.55501e-05
 Reference value :  2.55589e-05
 Reference value :  2.55901e-05
 Reference value :  2.57170e-05
 Reference value :  2.57502e-05
 Reference value :  2.57503e-05
 Reference value :  2.57507e-05
 Reference value :  2.57514e-05
 Reference value :  2.57522e-05
 Reference value :  2.57533e-05
 Reference value :  2.57543e-05
 Reference value :  2.57556e-05
 Reference value :  2.57598e-05
 Reference value :  2.57918e-05
 Reference value :  2.60000e-05
 Reference value :  2.60001e-05
 Reference value :  2.60002e-05
 Reference value :  2.60005e-05
 Reference value :  2.60016e-05
 Reference value :  2.60029e-05
 Reference value :  2.60047e-05
 Reference value :  2.60065e-05
 Reference value :  2.60101e-05
 Reference value :  2.60128e-05
 Reference value :  2.60179e-05
 Reference value :  2.60791e-05
 Reference value :  2.62501e-05
 Reference value :  2.62503e-05
 Reference value :  2.62510e-05
 Reference value :  2.62523e-05
 Reference value :  2.62534e-05
 Reference value :  2.62545e-05
 Reference value :  2.62566e-05
 Reference value :  2.62697e-05
 Reference value :  2.64560e-05
 Reference value :  2.65007e-05
 Reference value :  2.65030e-05
 Reference value :  2.65044e-05
 Reference value :  2.65050e-05
 Reference value :  2.65062e-05
 Reference value :  2.65094e-05
 Reference value :  2.65121e-05
 Reference value :  2.65139e-05
 Reference value :  2.65158e-05
 Reference value :  2.65198e-05
 Reference value :  2.65402e-05
 Reference value :  2.67281e-05
 Reference value :  2.67501e-05
 Reference value :  2.67502e-05
 Reference value :  2.67504e-05
 Reference value :  2.67514e-05
 Reference value :  2.67530e-05
 Reference value :  2.67534e-05
 Reference value :  2.67545e-05
 Reference value :  2.67572e-05
 Reference value :  2.67707e-05
 Reference value :  2.68600e-05
 Reference value :  2.70000e-05
 Reference value :  2.70001e-05
 Reference value :  2.70002e-05
 Reference value :  2.70008e-05
 Reference value :  2.70016e-05
 Reference value :  2.70029e-05
 Reference value :  2.70040e-05
 Reference value :  2.70055e-05
 Reference value :  2.70062e-05
 Reference value :  2.70077e-05
 Reference value :  2.70109e-05
 Reference value :  2.70294e-05
 Reference value :  2.72501e-05
 Reference value :  2.72502e-05
 Reference value :  2.72502e-05
 Reference value :  2.72504e-05
 Reference value :  2.72514e-05
 Reference value :  2.72530e-05
 Reference value :  2.72540e-05
 Reference value :  2.72550e-05
 Reference value :  2.72566e-05
 Reference value :  2.72700e-05
 Reference value :  2.74608e-05
 Reference value :  2.75000e-05
 Reference value :  2.75001e-05
 Reference value :  2.75002e-05
 Reference value :  2.75008e-05
 Reference value :  2.75016e-05
 Reference value :  2.75029e-05
 Reference value :  2.75040e-05
 Reference value :  2.75050e-05
 Reference value :  2.75071e-05
 Reference value :  2.75112e-05
 Reference value :  2.75132e-05
 Reference value :  2.75152e-05
 Reference value :  2.75190e-05
 Reference value :  2.75351e-05
 Reference value :  2.76069e-05
 Reference value :  2.77501e-05
 Reference value :  2.77502e-05
 Reference value :  2.77503e-05
 Reference value :  2.77510e-05
 Reference value :  2.77519e-05
 Reference value :  2.77530e-05
 Reference value :  2.77540e-05
 Reference value :  2.77552e-05
 Reference value :  2.77589e-05
 Reference value :  2.77867e-05
 Reference value :  2.80000e-05
 Reference value :  2.80002e-05
 Reference value :  2.80009e-05
 Reference value :  2.80019e-05
 Reference value :  2.80028e-05
 Reference value :  2.80038e-05
 Reference value :  2.80053e-05
 Reference value :  2.80059e-05
 Reference value :  2.80074e-05
 Reference value :  2.80102e-05
 Reference value :  2.80222e-05
 Reference value :  2.81905e-05
 Reference value :  2.82502e-05
 Reference value :  2.82503e-05
 Reference value :  2.82507e-05
 Reference value :  2.82514e-05
 Reference value :  2.82530e-05
 Reference value :  2.82540e-05
 Reference value :  2.82545e-05
 Reference value :  2.82558e-05
 Reference value :  2.82602e-05
 Reference value :  2.82819e-05
 Reference value :  2.84540e-05
 Reference value :  2.85000e-05
 Reference value :  2.85001e-05
 Reference value :  2.85001e-05
 Reference value :  2.85003e-05
 Reference value :  2.85008e-05
 Reference value :  2.85016e-05
 Reference value :  2.85024e-05
 Reference value :  2.85029e-05
 Reference value :  2.85040e-05
 Reference value :  2.85050e-05
 Reference value :  2.85063e-05
 Reference value :  2.85085e-05
 Reference value :  2.85112e-05
 Reference value :  2.85122e-05
 Reference value :  2.85143e-05
 Reference value :  2.85162e-05
 Reference value :  2.85190e-05
 Reference value :  2.85351e-05
 Reference value :  2.85768e-05
 Reference value :  2.85870e-05
 Reference value :  2.86067e-05
 Reference value :  2.86318e-05
 Reference value :  2.86377e-05
 Reference value :  2.86507e-05
 Reference value :  2.86799e-05
 Reference value :  2.87501e-05
 Reference value :  2.87501e-05
 Reference value :  2.87502e-05
 Reference value :  2.87502e-05
 Reference value :  2.87504e-05
 Reference value :  2.87510e-05
 Reference value :  2.87519e-05
 Reference value :  2.87530e-05
 Reference value :  2.87540e-05
 Reference value :  2.87552e-05
 Reference value :  2.87589e-05
 Reference value :  2.87723e-05
 Reference value :  2.89868e-05
 Reference value :  2.90002e-05
 Reference value :  2.90009e-05
 Reference value :  2.90015e-05
 Reference value :  2.90029e-05
 Reference value :  2.90049e-05
 Reference value :  2.90066e-05
 Reference value :  2.90094e-05
 Reference value :  2.90139e-05
 Reference value :  2.90455e-05
 Reference value :  2.92501e-05
 Reference value :  2.92502e-05
 Reference value :  2.92503e-05
 Reference value :  2.92510e-05
 Reference value :  2.92519e-05
 Reference value :  2.92530e-05
 Reference value :  2.92540e-05
 Reference value :  2.92550e-05
 Reference value :  2.92566e-05
 Reference value :  2.92698e-05
 Reference value :  2.93565e-05
 Reference value :  2.95000e-05
 Reference value :  2.95001e-05
 Reference value :  2.95002e-05
 Reference value :  2.95003e-05
 Reference value :  2.95008e-05
 Reference value :  2.95016e-05
 Reference value :  2.95029e-05
 Reference value :  2.95040e-05
 Reference value :  2.95050e-05
 Reference value :  2.95063e-05
 Reference value :  2.95085e-05
 Reference value :  2.95112e-05
 Reference value :  2.95132e-05
 Reference value :  2.95152e-05
 Reference value :  2.95190e-05
 Reference value :  2.95327e-05
 Reference value :  2.95419e-05
 Reference value :  2.95574e-05
 Reference value :  2.95914e-05
 Reference value :  2.96509e-05
 Reference value :  2.97501e-05
 Reference value :  2.97502e-05
 Reference value :  2.97503e-05
 Reference value :  2.97507e-05
 Reference value :  2.97514e-05
 Reference value :  2.97523e-05
 Reference value :  2.97530e-05
 Reference value :  2.97534e-05
 Reference value :  2.97546e-05
 Reference value :  2.97559e-05
 Reference value :  2.97588e-05
 Reference value :  2.97718e-05
 Reference value :  2.98687e-05
 Reference value :  3.00000e-05
 Reference value :  3.00001e-05
 Reference value :  3.00001e-05
 Reference value :  3.00002e-05
 Reference value :  3.00005e-05
 Reference value :  3.00012e-05
 Reference value :  3.00015e-05
 Reference value :  3.00023e-05
 Reference value :  3.00028e-05
 Reference value :  3.00039e-05
 Reference value :  3.00053e-05
 Reference value :  3.00060e-05
 Reference value :  3.00075e-05
 Reference value :  3.00092e-05
 Reference value :  3.00103e-05
 Reference value :  3.00167e-05
 Reference value :  3.00480e-05
 Reference value :  3.01452e-05
 Reference value :  3.01954e-05
 Reference value :  3.02329e-05
 Reference value :  3.02501e-05
 Reference value :  3.02502e-05
 Reference value :  3.02503e-05
 Reference value :  3.02507e-05
 Reference value :  3.02514e-05
 Reference value :  3.02523e-05
 Reference value :  3.02534e-05
 Reference value :  3.02545e-05
 Reference value :  3.02558e-05
 Reference value :  3.02635e-05
 Reference value :  3.04044e-05
 Reference value :  3.05015e-05
 Reference value :  3.05061e-05
 Reference value :  3.05109e-05
 Reference value :  3.05136e-05
 Reference value :  3.05162e-05
 Reference value :  3.05190e-05
 Reference value :  3.05239e-05
 Reference value :  3.05312e-05
 Reference value :  3.05338e-05
 Reference value :  3.05395e-05
 Reference value :  3.05525e-05
 Reference value :  3.05710e-05
 Reference value :  3.06662e-05
 Reference value :  3.07501e-05
 Reference value :  3.07502e-05
 Reference value :  3.07504e-05
 Reference value :  3.07514e-05
 Reference value :  3.07528e-05
 Reference value :  3.07537e-05
 Reference value :  3.07556e-05
 Reference value :  3.07597e-05
 Reference value :  3.09024e-05
 Reference value :  3.10001e-05
 Reference value :  3.10003e-05
 Reference value :  3.10008e-05
 Reference value :  3.10015e-05
 Reference value :  3.10023e-05
 Reference value :  3.10028e-05
 Reference value :  3.10039e-05
 Reference value :  3.10054e-05
 Reference value :  3.10060e-05
 Reference value :  3.10075e-05
 Reference value :  3.10092e-05
 Reference value :  3.10114e-05
 Reference value :  3.10319e-05
 Reference value :  3.12501e-05
 Reference value :  3.12502e-05
 Reference value :  3.12502e-05
 Reference value :  3.12507e-05
 Reference value :  3.12514e-05
 Reference value :  3.12530e-05
 Reference value :  3.12534e-05
 Reference value :  3.12545e-05
 Reference value :  3.12558e-05
 Reference value :  3.12574e-05
 Reference value :  3.12595e-05
 Reference value :  3.12737e-05
 Reference value :  3.13695e-05
 Reference value :  3.15000e-05
 Reference value :  3.15001e-05
 Reference value :  3.15001e-05
 Reference value :  3.15002e-05
 Reference value :  3.15005e-05
 Reference value :  3.15012e-05
 Reference value :  3.15020e-05
 Reference value :  3.15029e-05
 Reference value :  3.15039e-05
 Reference value :  3.15048e-05
 Reference value :  3.15066e-05
 Reference value :  3.15085e-05
 Reference value :  3.15093e-05
 Reference value :  3.15102e-05
 Reference value :  3.15119e-05
 Reference value :  3.15135e-05
 Reference value :  3.15173e-05
 Reference value :  3.15264e-05
 Reference value :  3.15408e-05
 Reference value :  3.15825e-05
 Reference value :  3.16463e-05
 Reference value :  3.17501e-05
 Reference value :  3.17502e-05
 Reference value :  3.17507e-05
 Reference value :  3.17514e-05
 Reference value :  3.17530e-05
 Reference value :  3.17540e-05
 Reference value :  3.17560e-05
 Reference value :  3.17654e-05
 Reference value :  3.19933e-05
 Reference value :  3.20001e-05
 Reference value :  3.20002e-05
 Reference value :  3.20008e-05
 Reference value :  3.20015e-05
 Reference value :  3.20028e-05
 Reference value :  3.20046e-05
 Reference value :  3.20060e-05
 Reference value :  3.20075e-05
 Reference value :  3.20103e-05
 Reference value :  3.20221e-05
 Reference value :  3.21423e-05
 Reference value :  3.22501e-05
 Reference value :  3.22502e-05
 Reference value :  3.22503e-05
 Reference value :  3.22510e-05
 Reference value :  3.22519e-05
 Reference value :  3.22534e-05
 Reference value :  3.22545e-05
 Reference value :  3.22558e-05
 Reference value :  3.22583e-05
 Reference value :  3.22636e-05
 Reference value :  3.23190e-05
 Reference value :  3.25000e-05
 Reference value :  3.25001e-05
 Reference value :  3.25001e-05
 Reference value :  3.25003e-05
 Reference value :  3.25012e-05
 Reference value :  3.25020e-05
 Reference value :  3.25029e-05
 Reference value :  3.25039e-05
 Reference value :  3.25048e-05
 Reference value :  3.25066e-05
 Reference value :  3.25085e-05
 Reference value :  3.25102e-05
 Reference value :  3.25119e-05
 Reference value :  3.25144e-05
 Reference value :  3.25175e-05
 Reference value :  3.25226e-05
 Reference value :  3.25415e-05
 Reference value :  3.25731e-05
 Reference value :  3.26885e-05
 Reference value :  3.27501e-05
 Reference value :  3.27502e-05
 Reference value :  3.27507e-05
 Reference value :  3.27514e-05
 Reference value :  3.27530e-05
 Reference value :  3.27540e-05
 Reference value :  3.27560e-05
 Reference value :  3.27654e-05
 Reference value :  3.28757e-05
 Reference value :  3.30000e-05
 Reference value :  3.30001e-05
 Reference value :  3.30005e-05
 Reference value :  3.30012e-05
 Reference value :  3.30019e-05
 Reference value :  3.30028e-05
 Reference value :  3.30039e-05
 Reference value :  3.30054e-05
 Reference value :  3.30060e-05
 Reference value :  3.30075e-05
 Reference value :  3.30092e-05
 Reference value :  3.30114e-05
 Reference value :  3.30221e-05
 Reference value :  3.30790e-05
 Reference value :  3.32501e-05
 Reference value :  3.32502e-05
 Reference value :  3.32503e-05
 Reference value :  3.32514e-05
 Reference value :  3.32530e-05
 Reference value :  3.32540e-05
 Reference value :  3.32550e-05
 Reference value :  3.32566e-05
 Reference value :  3.32596e-05
 Reference value :  3.32746e-05
 Reference value :  3.34945e-05
 Reference value :  3.35001e-05
 Reference value :  3.35004e-05
 Reference value :  3.35013e-05
 Reference value :  3.35026e-05
 Reference value :  3.35035e-05
 Reference value :  3.35045e-05
 Reference value :  3.35064e-05
 Reference value :  3.35085e-05
 Reference value :  3.35112e-05
 Reference value :  3.35150e-05
 Reference value :  3.35230e-05
 Reference value :  3.35329e-05
 Reference value :  3.35406e-05
 Reference value :  3.35625e-05
 Reference value :  3.36168e-05
 Reference value :  3.37501e-05
 Reference value :  3.37502e-05
 Reference value :  3.37503e-05
 Reference value :  3.37510e-05
 Reference value :  3.37519e-05
 Reference value :  3.37530e-05
 Reference value :  3.37553e-05
 Reference value :  3.37591e-05
 Reference value :  3.37914e-05
 Reference value :  3.40000e-05
 Reference value :  3.40001e-05
 Reference value :  3.40003e-05
 Reference value :  3.40014e-05
 Reference value :  3.40028e-05
 Reference value :  3.40039e-05
 Reference value :  3.40049e-05
 Reference value :  3.40074e-05
 Reference value :  3.40217e-05
 Reference value :  3.40258e-05
 Reference value :  3.40287e-05
 Reference value :  3.40336e-05
 Reference value :  3.40403e-05
 Reference value :  3.40491e-05
 Reference value :  3.40698e-05
 Reference value :  3.41492e-05
 Reference value :  3.42501e-05
 Reference value :  3.42502e-05
 Reference value :  3.42507e-05
 Reference value :  3.42519e-05
 Reference value :  3.42534e-05
 Reference value :  3.42559e-05
 Reference value :  3.42847e-05
 Reference value :  3.45000e-05
 Reference value :  3.45002e-05
 Reference value :  3.45012e-05
 Reference value :  3.45029e-05
 Reference value :  3.45055e-05
 Reference value :  3.45090e-05
 Reference value :  3.45115e-05
 Reference value :  3.45141e-05
 Reference value :  3.45264e-05
 Reference value :  3.46385e-05
 Reference value :  3.47502e-05
 Reference value :  3.47503e-05
 Reference value :  3.47507e-05
 Reference value :  3.47514e-05
 Reference value :  3.47530e-05
 Reference value :  3.47540e-05
 Reference value :  3.47550e-05
 Reference value :  3.47566e-05
 Reference value :  3.47635e-05
 Reference value :  3.48070e-05
 Reference value :  3.50000e-05
 Reference value :  3.50001e-05
 Reference value :  3.50002e-05
 Reference value :  3.50005e-05
 Reference value :  3.50012e-05
 Reference value :  3.50020e-05
 Reference value :  3.50029e-05
 Reference value :  3.50040e-05
 Reference value :  3.50050e-05
 Reference value :  3.50063e-05
 Reference value :  3.50085e-05
 Reference value :  3.50112e-05
 Reference value :  3.50132e-05
 Reference value :  3.50153e-05
 Reference value :  3.50174e-05
 Reference value :  3.50240e-05
 Reference value :  3.50498e-05
 Reference value :  3.51909e-05
 Reference value :  3.52501e-05
 Reference value :  3.52502e-05
 Reference value :  3.52503e-05
 Reference value :  3.52504e-05
 Reference value :  3.52510e-05
 Reference value :  3.52519e-05
 Reference value :  3.52530e-05
 Reference value :  3.52540e-05
 Reference value :  3.52552e-05
 Reference value :  3.52589e-05
 Reference value :  3.52866e-05
 Reference value :  3.55000e-05
 Reference value :  3.55001e-05
 Reference value :  3.55001e-05
 Reference value :  3.55002e-05
 Reference value :  3.55005e-05
 Reference value :  3.55012e-05
 Reference value :  3.55016e-05
 Reference value :  3.55024e-05
 Reference value :  3.55034e-05
 Reference value :  3.55047e-05
 Reference value :  3.55062e-05
 Reference value :  3.55077e-05
 Reference value :  3.55109e-05
 Reference value :  3.55205e-05
 Reference value :  3.55818e-05
 Reference value :  3.57501e-05
 Reference value :  3.57502e-05
 Reference value :  3.57502e-05
 Reference value :  3.57503e-05
 Reference value :  3.57507e-05
 Reference value :  3.57514e-05
 Reference value :  3.57523e-05
 Reference value :  3.57530e-05
 Reference value :  3.57534e-05
 Reference value :  3.57545e-05
 Reference value :  3.57558e-05
 Reference value :  3.57603e-05
 Reference value :  3.57823e-05
 Reference value :  3.59573e-05
 Reference value :  3.60007e-05
 Reference value :  3.60029e-05
 Reference value :  3.60043e-05
 Reference value :  3.60055e-05
 Reference value :  3.60078e-05
 Reference value :  3.60092e-05
 Reference value :  3.60119e-05
 Reference value :  3.60130e-05
 Reference value :  3.60150e-05
 Reference value :  3.60173e-05
 Reference value :  3.60205e-05
 Reference value :  3.60334e-05
 Reference value :  3.60656e-05
 Reference value :  3.62501e-05
 Reference value :  3.62501e-05
 Reference value :  3.62502e-05
 Reference value :  3.62503e-05
 Reference value :  3.62504e-05
 Reference value :  3.62510e-05
 Reference value :  3.62514e-05
 Reference value :  3.62523e-05
 Reference value :  3.62534e-05
 Reference value :  3.62545e-05
 Reference value :  3.62558e-05
 Reference value :  3.62610e-05
 Reference value :  3.62830e-05
 Reference value :  3.64588e-05
 Reference value :  3.65000e-05
 Reference value :  3.65001e-05
 Reference value :  3.65001e-05
 Reference value :  3.65002e-05
 Reference value :  3.65005e-05
 Reference value :  3.65016e-05
 Reference value :  3.65029e-05
 Reference value :  3.65047e-05
 Reference value :  3.65062e-05
 Reference value :  3.65077e-05
 Reference value :  3.65109e-05
 Reference value :  3.65291e-05
 Reference value :  3.66463e-05
 Reference value :  3.67502e-05
 Reference value :  3.67503e-05
 Reference value :  3.67507e-05
 Reference value :  3.67514e-05
 Reference value :  3.67530e-05
 Reference value :  3.67540e-05
 Reference value :  3.67550e-05
 Reference value :  3.67603e-05
 Reference value :  3.68586e-05
 Reference value :  3.70000e-05
 Reference value :  3.70001e-05
 Reference value :  3.70003e-05
 Reference value :  3.70012e-05
 Reference value :  3.70020e-05
 Reference value :  3.70029e-05
 Reference value :  3.70040e-05
 Reference value :  3.70050e-05
 Reference value :  3.70063e-05
 Reference value :  3.70100e-05
 Reference value :  3.70122e-05
 Reference value :  3.70152e-05
 Reference value :  3.70208e-05
 Reference value :  3.70498e-05
 Reference value :  3.70890e-05
 Reference value :  3.71213e-05
 Reference value :  3.71391e-05
 Reference value :  3.71587e-05
 Reference value :  3.72501e-05
 Reference value :  3.72502e-05
 Reference value :  3.72503e-05
 Reference value :  3.72507e-05
 Reference value :  3.72514e-05
 Reference value :  3.72523e-05
 Reference value :  3.72534e-05
 Reference value :  3.72546e-05
 Reference value :  3.72574e-05
 Reference value :  3.72652e-05
 Reference value :  3.73151e-05
 Reference value :  3.74864e-05
 Reference value :  3.75000e-05
 Reference value :  3.75001e-05
 Reference value :  3.75002e-05
 Reference value :  3.75005e-05
 Reference value :  3.75012e-05
 Reference value :  3.75020e-05
 Reference value :  3.75029e-05
 Reference value :  3.75040e-05
 Reference value :  3.75055e-05
 Reference value :  3.75062e-05
 Reference value :  3.75077e-05
 Reference value :  3.75095e-05
 Reference value :  3.75204e-05
 Reference value :  3.75462e-05
 Reference value :  3.77501e-05
 Reference value :  3.77502e-05
 Reference value :  3.77502e-05
 Reference value :  3.77504e-05
 Reference value :  3.77514e-05
 Reference value :  3.77523e-05
 Reference value :  3.77534e-05
 Reference value :  3.77545e-05
 Reference value :  3.77558e-05
 Reference value :  3.77603e-05
 Reference value :  3.78073e-05
 Reference value :  3.80000e-05
 Reference value :  3.80001e-05
 Reference value :  3.80002e-05
 Reference value :  3.80005e-05
 Reference value :  3.80012e-05
 Reference value :  3.80020e-05
 Reference value :  3.80029e-05
 Reference value :  3.80040e-05
 Reference value :  3.80050e-05
 Reference value :  3.80071e-05
 Reference value :  3.80100e-05
 Reference value :  3.80122e-05
 Reference value :  3.80152e-05
 Reference value :  3.80239e-05
 Reference value :  3.80335e-05
 Reference value :  3.80463e-05
 Reference value :  3.80680e-05
 Reference value :  3.81204e-05
 Reference value :  3.82501e-05
 Reference value :  3.82503e-05
 Reference value :  3.82510e-05
 Reference value :  3.82519e-05
 Reference value :  3.82530e-05
 Reference value :  3.82539e-05
 Reference value :  3.82559e-05
 Reference value :  3.82615e-05
 Reference value :  3.82857e-05
 Reference value :  3.84794e-05
 Reference value :  3.85004e-05
 Reference value :  3.85014e-05
 Reference value :  3.85023e-05
 Reference value :  3.85028e-05
 Reference value :  3.85039e-05
 Reference value :  3.85054e-05
 Reference value :  3.85068e-05
 Reference value :  3.85085e-05
 Reference value :  3.85122e-05
 Reference value :  3.85269e-05
 Reference value :  3.86267e-05
 Reference value :  3.87501e-05
 Reference value :  3.87502e-05
 Reference value :  3.87503e-05
 Reference value :  3.87507e-05
 Reference value :  3.87514e-05
 Reference value :  3.87523e-05
 Reference value :  3.87534e-05
 Reference value :  3.87545e-05
 Reference value :  3.87558e-05
 Reference value :  3.87575e-05
 Reference value :  3.87596e-05
 Reference value :  3.87637e-05
 Reference value :  3.87903e-05
 Reference value :  3.88817e-05
 Reference value :  3.89280e-05
 Reference value :  3.89748e-05
 Reference value :  3.90000e-05
 Reference value :  3.90001e-05
 Reference value :  3.90002e-05
 Reference value :  3.90005e-05
 Reference value :  3.90012e-05
 Reference value :  3.90020e-05
 Reference value :  3.90029e-05
 Reference value :  3.90040e-05
 Reference value :  3.90050e-05
 Reference value :  3.90070e-05
 Reference value :  3.90111e-05
 Reference value :  3.90122e-05
 Reference value :  3.90143e-05
 Reference value :  3.90163e-05
 Reference value :  3.90209e-05
 Reference value :  3.90244e-05
 Reference value :  3.90334e-05
 Reference value :  3.90520e-05
 Reference value :  3.91005e-05
 Reference value :  3.92501e-05
 Reference value :  3.92502e-05
 Reference value :  3.92504e-05
 Reference value :  3.92514e-05
 Reference value :  3.92530e-05
 Reference value :  3.92539e-05
 Reference value :  3.92560e-05
 Reference value :  3.92650e-05
 Reference value :  3.93697e-05
 Reference value :  3.95000e-05
 Reference value :  3.95001e-05
 Reference value :  3.95003e-05
 Reference value :  3.95008e-05
 Reference value :  3.95015e-05
 Reference value :  3.95028e-05
 Reference value :  3.95039e-05
 Reference value :  3.95054e-05
 Reference value :  3.95060e-05
 Reference value :  3.95075e-05
 Reference value :  3.95103e-05
 Reference value :  3.95221e-05
 Reference value :  3.97501e-05
 Reference value :  3.97502e-05
 Reference value :  3.97503e-05
 Reference value :  3.97510e-05
 Reference value :  3.97519e-05
 Reference value :  3.97530e-05
 Reference value :  3.97534e-05
 Reference value :  3.97545e-05
 Reference value :  3.97558e-05
 Reference value :  3.97583e-05
 Reference value :  3.97636e-05
 Reference value :  3.97896e-05
 Reference value :  4.00000e-05
 Reference value :  4.00001e-05
 Reference value :  4.00002e-05
 Reference value :  4.00005e-05
 Reference value :  4.00012e-05
 Reference value :  4.00016e-05
 Reference value :  4.00024e-05
 Reference value :  4.00029e-05
 Reference value :  4.00039e-05
 Reference value :  4.00048e-05
 Reference value :  4.00059e-05
 Reference value :  4.00076e-05
 Reference value :  4.00093e-05
 Reference value :  4.00102e-05
 Reference value :  4.00119e-05
 Reference value :  4.00135e-05
 Reference value :  4.00163e-05
 Reference value :  4.00188e-05
 Reference value :  4.00264e-05
 Reference value :  4.00356e-05
 Reference value :  4.00604e-05
 Reference value :  4.00817e-05
 Reference value :  4.01502e-05
 Reference value :  4.02501e-05
 Reference value :  4.02502e-05
 Reference value :  4.02503e-05
 Reference value :  4.02510e-05
 Reference value :  4.02514e-05
 Reference value :  4.02523e-05
 Reference value :  4.02534e-05
 Reference value :  4.02546e-05
 Reference value :  4.02560e-05
 Reference value :  4.02618e-05
 Reference value :  4.02875e-05
 Reference value :  4.04933e-05
 Reference value :  4.05000e-05
 Reference value :  4.05001e-05
 Reference value :  4.05002e-05
 Reference value :  4.05005e-05
 Reference value :  4.05012e-05
 Reference value :  4.05019e-05
 Reference value :  4.05028e-05
 Reference value :  4.05046e-05
 Reference value :  4.05060e-05
 Reference value :  4.05075e-05
 Reference value :  4.05103e-05
 Reference value :  4.05316e-05
 Reference value :  4.07501e-05
 Reference value :  4.07502e-05
 Reference value :  4.07502e-05
 Reference value :  4.07507e-05
 Reference value :  4.07514e-05
 Reference value :  4.07530e-05
 Reference value :  4.07540e-05
 Reference value :  4.07550e-05
 Reference value :  4.07566e-05
 Reference value :  4.07596e-05
 Reference value :  4.07747e-05
 Reference value :  4.09962e-05
 Reference value :  4.10001e-05
 Reference value :  4.10001e-05
 Reference value :  4.10004e-05
 Reference value :  4.10015e-05
 Reference value :  4.10027e-05
 Reference value :  4.10042e-05
 Reference value :  4.10056e-05
 Reference value :  4.10090e-05
 Reference value :  4.10120e-05
 Reference value :  4.10149e-05
 Reference value :  4.10183e-05
 Reference value :  4.10287e-05
 Reference value :  4.10832e-05
 Reference value :  4.12501e-05
 Reference value :  4.12502e-05
 Reference value :  4.12503e-05
 Reference value :  4.12510e-05
 Reference value :  4.12519e-05
 Reference value :  4.12534e-05
 Reference value :  4.12552e-05
 Reference value :  4.12617e-05
 Reference value :  4.13164e-05
 Reference value :  4.15000e-05
 Reference value :  4.15001e-05
 Reference value :  4.15005e-05
 Reference value :  4.15015e-05
 Reference value :  4.15028e-05
 Reference value :  4.15046e-05
 Reference value :  4.15060e-05
 Reference value :  4.15075e-05
 Reference value :  4.15103e-05
 Reference value :  4.15167e-05
 Reference value :  4.15475e-05
 Reference value :  4.17501e-05
 Reference value :  4.17502e-05
 Reference value :  4.17504e-05
 Reference value :  4.17514e-05
 Reference value :  4.17530e-05
 Reference value :  4.17534e-05
 Reference value :  4.17545e-05
 Reference value :  4.17558e-05
 Reference value :  4.17583e-05
 Reference value :  4.17635e-05
 Reference value :  4.18172e-05
 Reference value :  4.20000e-05
 Reference value :  4.20001e-05
 Reference value :  4.20003e-05
 Reference value :  4.20012e-05
 Reference value :  4.20020e-05
 Reference value :  4.20029e-05
 Reference value :  4.20039e-05
 Reference value :  4.20048e-05
 Reference value :  4.20066e-05
 Reference value :  4.20082e-05
 Reference value :  4.20099e-05
 Reference value :  4.20150e-05
 Reference value :  4.20232e-05
 Reference value :  4.20325e-05
 Reference value :  4.20399e-05
 Reference value :  4.20502e-05
 Reference value :  4.20840e-05
 Reference value :  4.21766e-05
 Reference value :  4.22501e-05
 Reference value :  4.22502e-05
 Reference value :  4.22504e-05
 Reference value :  4.22514e-05
 Reference value :  4.22530e-05
 Reference value :  4.22553e-05
 Reference value :  4.22592e-05
 Reference value :  4.22915e-05
 Reference value :  4.25000e-05
 Reference value :  4.25001e-05
 Reference value :  4.25003e-05
 Reference value :  4.25014e-05
 Reference value :  4.25028e-05
 Reference value :  4.25044e-05
 Reference value :  4.25088e-05
 Reference value :  4.25217e-05
 Reference value :  4.25258e-05
 Reference value :  4.25314e-05
 Reference value :  4.25403e-05
 Reference value :  4.25631e-05
 Reference value :  4.27148e-05
 Reference value :  4.27502e-05
 Reference value :  4.27507e-05
 Reference value :  4.27523e-05
 Reference value :  4.27540e-05
 Reference value :  4.27587e-05
 Reference value :  4.29708e-05
 Reference value :  4.30001e-05
 Reference value :  4.30003e-05
 Reference value :  4.30016e-05
 Reference value :  4.30034e-05
 Reference value :  4.30066e-05
 Reference value :  4.30115e-05
 Reference value :  4.30160e-05
 Reference value :  4.30803e-05
 Reference value :  4.32502e-05
 Reference value :  4.32503e-05
 Reference value :  4.32514e-05
 Reference value :  4.32534e-05
 Reference value :  4.32558e-05
 Reference value :  4.32697e-05
 Reference value :  4.35007e-05
 Reference value :  4.35030e-05
 Reference value :  4.35050e-05
 Reference value :  4.35094e-05
 Reference value :  4.35130e-05
 Reference value :  4.35158e-05
 Reference value :  4.35264e-05
 Reference value :  4.37501e-05
 Reference value :  4.37502e-05
 Reference value :  4.37507e-05
 Reference value :  4.37523e-05
 Reference value :  4.37539e-05
 Reference value :  4.37572e-05
 Reference value :  4.38608e-05
 Reference value :  4.40001e-05
 Reference value :  4.40003e-05
 Reference value :  4.40016e-05
 Reference value :  4.40029e-05
 Reference value :  4.40047e-05
 Reference value :  4.40062e-05
 Reference value :  4.40086e-05
 Reference value :  4.40293e-05
 Reference value :  4.42501e-05
 Reference value :  4.42503e-05
 Reference value :  4.42510e-05
 Reference value :  4.42523e-05
 Reference value :  4.42534e-05
 Reference value :  4.42550e-05
 Reference value :  4.42603e-05
 Reference value :  4.43579e-05
 Reference value :  4.45000e-05
 Reference value :  4.45001e-05
 Reference value :  4.45008e-05
 Reference value :  4.45024e-05
 Reference value :  4.45045e-05
 Reference value :  4.45071e-05
 Reference value :  4.45100e-05
 Reference value :  4.45122e-05
 Reference value :  4.45143e-05
 Reference value :  4.45163e-05
 Reference value :  4.45208e-05
 Reference value :  4.45498e-05
 Reference value :  4.47501e-05
 Reference value :  4.47502e-05
 Reference value :  4.47503e-05
 Reference value :  4.47507e-05
 Reference value :  4.47514e-05
 Reference value :  4.47530e-05
 Reference value :  4.47546e-05
 Reference value :  4.47589e-05
 Reference value :  4.47867e-05
 Reference value :  4.50000e-05
 Reference value :  4.50001e-05
 Reference value :  4.50002e-05
 Reference value :  4.50008e-05
 Reference value :  4.50016e-05
 Reference value :  4.50029e-05
 Reference value :  4.50047e-05
 Reference value :  4.50062e-05
 Reference value :  4.50077e-05
 Reference value :  4.50109e-05
 Reference value :  4.50294e-05
 Reference value :  4.52501e-05
 Reference value :  4.52502e-05
 Reference value :  4.52503e-05
 Reference value :  4.52514e-05
 Reference value :  4.52530e-05
 Reference value :  4.52534e-05
 Reference value :  4.52545e-05
 Reference value :  4.52558e-05
 Reference value :  4.52636e-05
 Reference value :  4.53074e-05
 Reference value :  4.55000e-05
 Reference value :  4.55001e-05
 Reference value :  4.55002e-05
 Reference value :  4.55005e-05
 Reference value :  4.55012e-05
 Reference value :  4.55020e-05
 Reference value :  4.55029e-05
 Reference value :  4.55045e-05
 Reference value :  4.55055e-05
 Reference value :  4.55085e-05
 Reference value :  4.55112e-05
 Reference value :  4.55132e-05
 Reference value :  4.55152e-05
 Reference value :  4.55174e-05
 Reference value :  4.55239e-05
 Reference value :  4.55498e-05
 Reference value :  4.55783e-05
 Reference value :  4.55885e-05
 Reference value :  4.56078e-05
 Reference value :  4.56279e-05
 Reference value :  4.56359e-05
 Reference value :  4.56421e-05
 Reference value :  4.56628e-05
 Reference value :  4.57205e-05
 Reference value :  4.57501e-05
 Reference value :  4.57502e-05
 Reference value :  4.57504e-05
 Reference value :  4.57514e-05
 Reference value :  4.57523e-05
 Reference value :  4.57534e-05
 Reference value :  4.57546e-05
 Reference value :  4.57574e-05
 Reference value :  4.57652e-05
 Reference value :  4.58151e-05
 Reference value :  4.60000e-05
 Reference value :  4.60002e-05
 Reference value :  4.60010e-05
 Reference value :  4.60019e-05
 Reference value :  4.60035e-05
 Reference value :  4.60049e-05
 Reference value :  4.60066e-05
 Reference value :  4.60094e-05
 Reference value :  4.60117e-05
 Reference value :  4.60221e-05
 Reference value :  4.60739e-05
 Reference value :  4.62501e-05
 Reference value :  4.62502e-05
 Reference value :  4.62502e-05
 Reference value :  4.62503e-05
 Reference value :  4.62504e-05
 Reference value :  4.62510e-05
 Reference value :  4.62514e-05
 Reference value :  4.62523e-05
 Reference value :  4.62530e-05
 Reference value :  4.62534e-05
 Reference value :  4.62545e-05
 Reference value :  4.62558e-05
 Reference value :  4.62582e-05
 Reference value :  4.62698e-05
 Reference value :  4.63568e-05
 Reference value :  4.65000e-05
 Reference value :  4.65001e-05
 Reference value :  4.65002e-05
 Reference value :  4.65005e-05
 Reference value :  4.65012e-05
 Reference value :  4.65020e-05
 Reference value :  4.65029e-05
 Reference value :  4.65040e-05
 Reference value :  4.65050e-05
 Reference value :  4.65063e-05
 Reference value :  4.65085e-05
 Reference value :  4.65112e-05
 Reference value :  4.65132e-05
 Reference value :  4.65152e-05
 Reference value :  4.65191e-05
 Reference value :  4.65335e-05
 Reference value :  4.65375e-05
 Reference value :  4.65464e-05
 Reference value :  4.65562e-05
 Reference value :  4.65749e-05
 Reference value :  4.66212e-05
 Reference value :  4.67444e-05
 Reference value :  4.67501e-05
 Reference value :  4.67502e-05
 Reference value :  4.67503e-05
 Reference value :  4.67510e-05
 Reference value :  4.67519e-05
 Reference value :  4.67530e-05
 Reference value :  4.67539e-05
 Reference value :  4.67559e-05
 Reference value :  4.67649e-05
 Reference value :  4.68676e-05
 Reference value :  4.70000e-05
 Reference value :  4.70001e-05
 Reference value :  4.70003e-05
 Reference value :  4.70012e-05
 Reference value :  4.70019e-05
 Reference value :  4.70028e-05
 Reference value :  4.70046e-05
 Reference value :  4.70060e-05
 Reference value :  4.70075e-05
 Reference value :  4.70103e-05
 Reference value :  4.70317e-05
 Reference value :  4.72501e-05
 Reference value :  4.72502e-05
 Reference value :  4.72507e-05
[...]
 Reference value :  2.60003e-04
 Reference value :  2.60004e-04
 Reference value :  2.60005e-04
 Reference value :  2.60007e-04
 Reference value :  2.60010e-04
 Reference value :  2.60011e-04
 Reference value :  2.60013e-04
 Reference value :  2.60015e-04
 Reference value :  2.60019e-04
 Reference value :  2.60028e-04
 Reference value :  2.60033e-04
 Reference value :  2.60043e-04
 Reference value :  2.60053e-04
 Reference value :  2.60070e-04
 Reference value :  2.60082e-04
 Reference value :  2.60091e-04
 Reference value :  2.60097e-04
 Reference value :  2.60109e-04
 Reference value :  2.60138e-04
 Reference value :  2.60250e-04
 Reference value :  2.60250e-04
 Reference value :  2.60250e-04
 Reference value :  2.60251e-04
 Reference value :  2.60251e-04
 Reference value :  2.60253e-04
 Reference value :  2.60254e-04
 Reference value :  2.60255e-04
 Reference value :  2.60262e-04
 Reference value :  2.60315e-04
 Reference value :  2.60500e-04
 Reference value :  2.60500e-04
 Reference value :  2.60500e-04
 Reference value :  2.60501e-04
 Reference value :  2.60502e-04
 Reference value :  2.60503e-04
 Reference value :  2.60504e-04
 Reference value :  2.60506e-04
 Reference value :  2.60506e-04
 Reference value :  2.60508e-04
 Reference value :  2.60510e-04
 Reference value :  2.60515e-04
 Reference value :  2.60547e-04
 Reference value :  2.60750e-04
 Reference value :  2.60750e-04
 Reference value :  2.60750e-04
 Reference value :  2.60750e-04
 Reference value :  2.60751e-04
 Reference value :  2.60751e-04
 Reference value :  2.60752e-04
 Reference value :  2.60753e-04
 Reference value :  2.60754e-04
 Reference value :  2.60756e-04
 Reference value :  2.60764e-04
 Reference value :  2.60858e-04
 Reference value :  2.61000e-04
 Reference value :  2.61000e-04
 Reference value :  2.61000e-04
 Reference value :  2.61001e-04
 Reference value :  2.61002e-04
 Reference value :  2.61003e-04
 Reference value :  2.61004e-04
 Reference value :  2.61006e-04
 Reference value :  2.61008e-04
 Reference value :  2.61011e-04
 Reference value :  2.61013e-04
 Reference value :  2.61015e-04
 Reference value :  2.61019e-04
 Reference value :  2.61028e-04
 Reference value :  2.61031e-04
 Reference value :  2.61037e-04
 Reference value :  2.61043e-04
 Reference value :  2.61058e-04
 Reference value :  2.61081e-04
 Reference value :  2.61108e-04
 Reference value :  2.61130e-04
 Reference value :  2.61197e-04
 Reference value :  2.61250e-04
 Reference value :  2.61250e-04
 Reference value :  2.61250e-04
 Reference value :  2.61251e-04
 Reference value :  2.61251e-04
 Reference value :  2.61253e-04
 Reference value :  2.61254e-04
 Reference value :  2.61256e-04
 Reference value :  2.61262e-04
 Reference value :  2.61315e-04
 Reference value :  2.61500e-04
 Reference value :  2.61500e-04
 Reference value :  2.61500e-04
 Reference value :  2.61501e-04
 Reference value :  2.61501e-04
 Reference value :  2.61502e-04
 Reference value :  2.61503e-04
 Reference value :  2.61505e-04
 Reference value :  2.61506e-04
 Reference value :  2.61508e-04
 Reference value :  2.61511e-04
 Reference value :  2.61520e-04
 Reference value :  2.61650e-04
 Reference value :  2.61750e-04
 Reference value :  2.61750e-04
 Reference value :  2.61750e-04
 Reference value :  2.61751e-04
 Reference value :  2.61751e-04
 Reference value :  2.61752e-04
 Reference value :  2.61753e-04
 Reference value :  2.61754e-04
 Reference value :  2.61756e-04
 Reference value :  2.61760e-04
 Reference value :  2.61782e-04
 Reference value :  2.62000e-04
 Reference value :  2.62000e-04
 Reference value :  2.62000e-04
 Reference value :  2.62000e-04
 Reference value :  2.62001e-04
 Reference value :  2.62002e-04
 Reference value :  2.62002e-04
 Reference value :  2.62003e-04
 Reference value :  2.62004e-04
 Reference value :  2.62005e-04
 Reference value :  2.62007e-04
 Reference value :  2.62011e-04
 Reference value :  2.62013e-04
 Reference value :  2.62015e-04
 Reference value :  2.62019e-04
 Reference value :  2.62032e-04
 Reference value :  2.62042e-04
 Reference value :  2.62053e-04
 Reference value :  2.62079e-04
 Reference value :  2.62089e-04
 Reference value :  2.62117e-04
 Reference value :  2.62147e-04
 Reference value :  2.62224e-04
 Reference value :  2.62250e-04
 Reference value :  2.62250e-04
 Reference value :  2.62251e-04
 Reference value :  2.62251e-04
 Reference value :  2.62253e-04
 Reference value :  2.62254e-04
 Reference value :  2.62255e-04
 Reference value :  2.62259e-04
 Reference value :  2.62272e-04
 Reference value :  2.62487e-04
 Reference value :  2.62500e-04
 Reference value :  2.62500e-04
 Reference value :  2.62500e-04
 Reference value :  2.62500e-04
 Reference value :  2.62501e-04
 Reference value :  2.62502e-04
 Reference value :  2.62502e-04
 Reference value :  2.62503e-04
 Reference value :  2.62504e-04
 Reference value :  2.62506e-04
 Reference value :  2.62506e-04
 Reference value :  2.62508e-04
 Reference value :  2.62510e-04
 Reference value :  2.62515e-04
 Reference value :  2.62547e-04
 Reference value :  2.62750e-04
 Reference value :  2.62750e-04
 Reference value :  2.62750e-04
 Reference value :  2.62750e-04
 Reference value :  2.62751e-04
 Reference value :  2.62751e-04
 Reference value :  2.62753e-04
 Reference value :  2.62753e-04
 Reference value :  2.62754e-04
 Reference value :  2.62756e-04
 Reference value :  2.62760e-04
 Reference value :  2.62782e-04
 Reference value :  2.62957e-04
 Reference value :  2.63000e-04
 Reference value :  2.63000e-04
 Reference value :  2.63000e-04
 Reference value :  2.63001e-04
 Reference value :  2.63002e-04
 Reference value :  2.63003e-04
 Reference value :  2.63005e-04
 Reference value :  2.63006e-04
 Reference value :  2.63007e-04
 Reference value :  2.63009e-04
 Reference value :  2.63023e-04
 Reference value :  2.63233e-04
 Reference value :  2.63250e-04
 Reference value :  2.63250e-04
 Reference value :  2.63250e-04
 Reference value :  2.63251e-04
 Reference value :  2.63252e-04
 Reference value :  2.63253e-04
 Reference value :  2.63255e-04
 Reference value :  2.63258e-04
 Reference value :  2.63275e-04
 Reference value :  2.63500e-04
 Reference value :  2.63500e-04
 Reference value :  2.63500e-04
 Reference value :  2.63500e-04
 Reference value :  2.63501e-04
 Reference value :  2.63502e-04
 Reference value :  2.63503e-04
 Reference value :  2.63504e-04
 Reference value :  2.63505e-04
 Reference value :  2.63506e-04
 Reference value :  2.63512e-04
 Reference value :  2.63522e-04
 Reference value :  2.63526e-04
 Reference value :  2.63529e-04
 Reference value :  2.63532e-04
 Reference value :  2.63534e-04
 Reference value :  2.63538e-04
 Reference value :  2.63545e-04
 Reference value :  2.63557e-04
 Reference value :  2.63611e-04
 Reference value :  2.63750e-04
 Reference value :  2.63750e-04
 Reference value :  2.63750e-04
 Reference value :  2.63751e-04
 Reference value :  2.63753e-04
 Reference value :  2.63754e-04
 Reference value :  2.63755e-04
 Reference value :  2.63759e-04
 Reference value :  2.63772e-04
 Reference value :  2.63866e-04
 Reference value :  2.64000e-04
 Reference value :  2.64000e-04
 Reference value :  2.64000e-04
 Reference value :  2.64001e-04
 Reference value :  2.64001e-04
 Reference value :  2.64002e-04
 Reference value :  2.64003e-04
 Reference value :  2.64005e-04
 Reference value :  2.64007e-04
 Reference value :  2.64009e-04
 Reference value :  2.64011e-04
 Reference value :  2.64013e-04
 Reference value :  2.64016e-04
 Reference value :  2.64026e-04
 Reference value :  2.64082e-04
 Reference value :  2.64250e-04
 Reference value :  2.64250e-04
 Reference value :  2.64250e-04
 Reference value :  2.64251e-04
 Reference value :  2.64251e-04
 Reference value :  2.64252e-04
 Reference value :  2.64253e-04
 Reference value :  2.64255e-04
 Reference value :  2.64260e-04
 Reference value :  2.64357e-04
 Reference value :  2.64500e-04
 Reference value :  2.64500e-04
 Reference value :  2.64500e-04
 Reference value :  2.64501e-04
 Reference value :  2.64502e-04
 Reference value :  2.64503e-04
 Reference value :  2.64504e-04
 Reference value :  2.64506e-04
 Reference value :  2.64508e-04
 Reference value :  2.64511e-04
 Reference value :  2.64513e-04
 Reference value :  2.64515e-04
 Reference value :  2.64519e-04
 Reference value :  2.64521e-04
 Reference value :  2.64573e-04
 Reference value :  2.64750e-04
 Reference value :  2.64750e-04
 Reference value :  2.64750e-04
 Reference value :  2.64751e-04
 Reference value :  2.64751e-04
 Reference value :  2.64753e-04
 Reference value :  2.64754e-04
 Reference value :  2.64755e-04
 Reference value :  2.64759e-04
 Reference value :  2.64773e-04
 Reference value :  2.64879e-04
 Reference value :  2.65000e-04
 Reference value :  2.65000e-04
 Reference value :  2.65000e-04
 Reference value :  2.65001e-04
 Reference value :  2.65001e-04
 Reference value :  2.65002e-04
 Reference value :  2.65003e-04
 Reference value :  2.65004e-04
 Reference value :  2.65006e-04
 Reference value :  2.65006e-04
 Reference value :  2.65008e-04
 Reference value :  2.65011e-04
 Reference value :  2.65029e-04
 Reference value :  2.65250e-04
 Reference value :  2.65250e-04
 Reference value :  2.65250e-04
 Reference value :  2.65251e-04
 Reference value :  2.65251e-04
 Reference value :  2.65253e-04
 Reference value :  2.65254e-04
 Reference value :  2.65255e-04
 Reference value :  2.65257e-04
 Reference value :  2.65270e-04
 Reference value :  2.65457e-04
 Reference value :  2.65500e-04
 Reference value :  2.65500e-04
 Reference value :  2.65500e-04
 Reference value :  2.65501e-04
 Reference value :  2.65502e-04
 Reference value :  2.65502e-04
 Reference value :  2.65503e-04
 Reference value :  2.65504e-04
 Reference value :  2.65505e-04
 Reference value :  2.65506e-04
 Reference value :  2.65508e-04
 Reference value :  2.65511e-04
 Reference value :  2.65513e-04
 Reference value :  2.65515e-04
 Reference value :  2.65519e-04
 Reference value :  2.65550e-04
 Reference value :  2.65750e-04
 Reference value :  2.65750e-04
 Reference value :  2.65750e-04
 Reference value :  2.65751e-04
 Reference value :  2.65752e-04
 Reference value :  2.65753e-04
 Reference value :  2.65754e-04
 Reference value :  2.65756e-04
 Reference value :  2.65766e-04
 Reference value :  2.65879e-04
 Reference value :  2.66000e-04
 Reference value :  2.66000e-04
 Reference value :  2.66000e-04
 Reference value :  2.66001e-04
 Reference value :  2.66002e-04
 Reference value :  2.66003e-04
 Reference value :  2.66004e-04
 Reference value :  2.66006e-04
 Reference value :  2.66007e-04
 Reference value :  2.66009e-04
 Reference value :  2.66012e-04
 Reference value :  2.66045e-04
 Reference value :  2.66250e-04
 Reference value :  2.66250e-04
 Reference value :  2.66250e-04
 Reference value :  2.66250e-04
 Reference value :  2.66251e-04
 Reference value :  2.66251e-04
 Reference value :  2.66252e-04
 Reference value :  2.66253e-04
 Reference value :  2.66254e-04
 Reference value :  2.66256e-04
 Reference value :  2.66260e-04
 Reference value :  2.66282e-04
 Reference value :  2.66457e-04
 Reference value :  2.66500e-04
 Reference value :  2.66500e-04
 Reference value :  2.66500e-04
 Reference value :  2.66501e-04
 Reference value :  2.66502e-04
 Reference value :  2.66503e-04
 Reference value :  2.66505e-04
 Reference value :  2.66508e-04
 Reference value :  2.66511e-04
 Reference value :  2.66512e-04
 Reference value :  2.66514e-04
 Reference value :  2.66517e-04
 Reference value :  2.66528e-04
 Reference value :  2.66538e-04
 Reference value :  2.66546e-04
 Reference value :  2.66561e-04
 Reference value :  2.66609e-04
 Reference value :  2.66716e-04
 Reference value :  2.66750e-04
 Reference value :  2.66750e-04
 Reference value :  2.66751e-04
 Reference value :  2.66751e-04
 Reference value :  2.66753e-04
 Reference value :  2.66754e-04
 Reference value :  2.66755e-04
 Reference value :  2.66761e-04
 Reference value :  2.66867e-04
 Reference value :  2.67000e-04
 Reference value :  2.67000e-04
 Reference value :  2.67000e-04
 Reference value :  2.67001e-04
 Reference value :  2.67002e-04
 Reference value :  2.67003e-04
 Reference value :  2.67005e-04
 Reference value :  2.67006e-04
 Reference value :  2.67007e-04
 Reference value :  2.67010e-04
 Reference value :  2.67032e-04
 Reference value :  2.67250e-04
 Reference value :  2.67250e-04
 Reference value :  2.67250e-04
 Reference value :  2.67251e-04
 Reference value :  2.67253e-04
 Reference value :  2.67254e-04
 Reference value :  2.67255e-04
 Reference value :  2.67257e-04
 Reference value :  2.67260e-04
 Reference value :  2.67290e-04
 Reference value :  2.67500e-04
 Reference value :  2.67500e-04
 Reference value :  2.67501e-04
 Reference value :  2.67502e-04
 Reference value :  2.67503e-04
 Reference value :  2.67504e-04
 Reference value :  2.67505e-04
 Reference value :  2.67508e-04
 Reference value :  2.67509e-04
 Reference value :  2.67511e-04
 Reference value :  2.67513e-04
 Reference value :  2.67515e-04
 Reference value :  2.67518e-04
 Reference value :  2.67521e-04
 Reference value :  2.67543e-04
 Reference value :  2.67609e-04
 Reference value :  2.67750e-04
 Reference value :  2.67750e-04
 Reference value :  2.67751e-04
 Reference value :  2.67751e-04
 Reference value :  2.67753e-04
 Reference value :  2.67754e-04
 Reference value :  2.67755e-04
 Reference value :  2.67762e-04
 Reference value :  2.67815e-04
 Reference value :  2.68000e-04
 Reference value :  2.68000e-04
 Reference value :  2.68001e-04
 Reference value :  2.68002e-04
 Reference value :  2.68003e-04
 Reference value :  2.68005e-04
 Reference value :  2.68006e-04
 Reference value :  2.68008e-04
 Reference value :  2.68011e-04
 Reference value :  2.68047e-04
 Reference value :  2.68250e-04
 Reference value :  2.68250e-04
 Reference value :  2.68251e-04
 Reference value :  2.68252e-04
 Reference value :  2.68253e-04
 Reference value :  2.68255e-04
 Reference value :  2.68258e-04
 Reference value :  2.68307e-04
 Reference value :  2.68500e-04
 Reference value :  2.68500e-04
 Reference value :  2.68501e-04
 Reference value :  2.68502e-04
 Reference value :  2.68503e-04
 Reference value :  2.68504e-04
 Reference value :  2.68506e-04
 Reference value :  2.68510e-04
 Reference value :  2.68512e-04
 Reference value :  2.68515e-04
 Reference value :  2.68521e-04
 Reference value :  2.68533e-04
 Reference value :  2.68548e-04
 Reference value :  2.68585e-04
 Reference value :  2.68594e-04
 Reference value :  2.68614e-04
 Reference value :  2.68652e-04
 Reference value :  2.68750e-04
 Reference value :  2.68750e-04
 Reference value :  2.68751e-04
 Reference value :  2.68752e-04
 Reference value :  2.68753e-04
 Reference value :  2.68755e-04
 Reference value :  2.68772e-04
 Reference value :  2.69000e-04
 Reference value :  2.69000e-04
 Reference value :  2.69000e-04
 Reference value :  2.69001e-04
 Reference value :  2.69002e-04
 Reference value :  2.69003e-04
 Reference value :  2.69006e-04
 Reference value :  2.69007e-04
 Reference value :  2.69009e-04
 Reference value :  2.69015e-04
 Reference value :  2.69151e-04
 Reference value :  2.69250e-04
 Reference value :  2.69250e-04
 Reference value :  2.69251e-04
 Reference value :  2.69252e-04
 Reference value :  2.69253e-04
 Reference value :  2.69254e-04
 Reference value :  2.69256e-04
 Reference value :  2.69264e-04
 Reference value :  2.69457e-04
 Reference value :  2.69500e-04
 Reference value :  2.69500e-04
 Reference value :  2.69501e-04
 Reference value :  2.69502e-04
 Reference value :  2.69503e-04
 Reference value :  2.69504e-04
 Reference value :  2.69506e-04
 Reference value :  2.69508e-04
 Reference value :  2.69511e-04
 Reference value :  2.69513e-04
 Reference value :  2.69515e-04
 Reference value :  2.69519e-04
 Reference value :  2.69528e-04
 Reference value :  2.69531e-04
 Reference value :  2.69537e-04
 Reference value :  2.69543e-04
 Reference value :  2.69559e-04
 Reference value :  2.69567e-04
 Reference value :  2.69609e-04
 Reference value :  2.69638e-04
 Reference value :  2.69660e-04
 Reference value :  2.69703e-04
 Reference value :  2.69750e-04
 Reference value :  2.69750e-04
 Reference value :  2.69750e-04
 Reference value :  2.69751e-04
 Reference value :  2.69752e-04
 Reference value :  2.69753e-04
 Reference value :  2.69754e-04
 Reference value :  2.69755e-04
 Reference value :  2.69757e-04
 Reference value :  2.69772e-04
 Reference value :  2.69872e-04
 Reference value :  2.69986e-04
 Reference value :  2.70000e-04
 Reference value :  2.70000e-04
 Reference value :  2.70000e-04
 Reference value :  2.70001e-04
 Reference value :  2.70001e-04
 Reference value :  2.70002e-04
 Reference value :  2.70003e-04
 Reference value :  2.70004e-04
 Reference value :  2.70006e-04
 Reference value :  2.70006e-04
 Reference value :  2.70008e-04
 Reference value :  2.70012e-04
 Reference value :  2.70029e-04
 Reference value :  2.70148e-04
 Reference value :  2.70250e-04
 Reference value :  2.70250e-04
 Reference value :  2.70250e-04
 Reference value :  2.70251e-04
 Reference value :  2.70251e-04
 Reference value :  2.70253e-04
 Reference value :  2.70254e-04
 Reference value :  2.70255e-04
 Reference value :  2.70258e-04
 Reference value :  2.70307e-04
 Reference value :  2.70500e-04
 Reference value :  2.70500e-04
 Reference value :  2.70500e-04
 Reference value :  2.70500e-04
 Reference value :  2.70501e-04
 Reference value :  2.70502e-04
 Reference value :  2.70503e-04
 Reference value :  2.70504e-04
 Reference value :  2.70506e-04
 Reference value :  2.70508e-04
 Reference value :  2.70511e-04
 Reference value :  2.70513e-04
 Reference value :  2.70515e-04
 Reference value :  2.70517e-04
 Reference value :  2.70522e-04
 Reference value :  2.70530e-04
 Reference value :  2.70534e-04
 Reference value :  2.70539e-04
 Reference value :  2.70545e-04
 Reference value :  2.70561e-04
 Reference value :  2.70607e-04
 Reference value :  2.70750e-04
 Reference value :  2.70750e-04
 Reference value :  2.70750e-04
 Reference value :  2.70751e-04
 Reference value :  2.70751e-04
 Reference value :  2.70753e-04
 Reference value :  2.70753e-04
 Reference value :  2.70755e-04
 Reference value :  2.70756e-04
 Reference value :  2.70765e-04
 Reference value :  2.70812e-04
 Reference value :  2.70918e-04
 Reference value :  2.70955e-04
 Reference value :  2.71000e-04
 Reference value :  2.71000e-04
 Reference value :  2.71000e-04
 Reference value :  2.71001e-04
 Reference value :  2.71002e-04
 Reference value :  2.71002e-04
 Reference value :  2.71003e-04
 Reference value :  2.71006e-04
 Reference value :  2.71007e-04
 Reference value :  2.71009e-04
 Reference value :  2.71012e-04
 Reference value :  2.71028e-04
 Reference value :  2.71138e-04
 Reference value :  2.71250e-04
 Reference value :  2.71250e-04
 Reference value :  2.71250e-04
 Reference value :  2.71250e-04
 Reference value :  2.71251e-04
 Reference value :  2.71251e-04
 Reference value :  2.71253e-04
 Reference value :  2.71253e-04
 Reference value :  2.71254e-04
 Reference value :  2.71256e-04
 Reference value :  2.71260e-04
 Reference value :  2.71307e-04
 Reference value :  2.71500e-04
 Reference value :  2.71500e-04
 Reference value :  2.71500e-04
 Reference value :  2.71500e-04
 Reference value :  2.71501e-04
 Reference value :  2.71502e-04
 Reference value :  2.71502e-04
 Reference value :  2.71503e-04
 Reference value :  2.71505e-04
 Reference value :  2.71505e-04
 Reference value :  2.71506e-04
 Reference value :  2.71509e-04
 Reference value :  2.71516e-04
 Reference value :  2.71565e-04
 Reference value :  2.71750e-04
 Reference value :  2.71750e-04
 Reference value :  2.71750e-04
 Reference value :  2.71751e-04
 Reference value :  2.71751e-04
 Reference value :  2.71753e-04
 Reference value :  2.71755e-04
 Reference value :  2.71758e-04
 Reference value :  2.71791e-04
No. of Data Rows : 39014
ngspice-44 done
