
Note: Compatibility modes selected: hs a


Circuit: ** sch_path: /home/samantha/cace/sar-adc-using-sky130-pdk/runs/run_2025-09-04_10-10-54/parameters/sampling_rate/run_04/sampling_rate.sch

option SCALE: Scale is set to 1e-06 for instance and model parameters
option SCALE: Scale is set to 1e-06 for instance and model parameters
option SCALE: Scale is set to 1e-06 for instance and model parameters
option SCALE: Scale is set to 1e-06 for instance and model parameters
Doing analysis at TEMP = 27.000000 and TNOM = 27.000000

Using KLU as Direct Linear Solver
Operating point simulation skipped by 'uic',
  now using transient initial conditions.
 Reference value :  1.00000e-12
 Reference value :  1.02800e-12
 Reference value :  1.19600e-12
 Reference value :  2.31577e-12
 Reference value :  4.44338e-12
 Reference value :  9.77492e-12
 Reference value :  2.06889e-11
 Reference value :  6.34460e-11
 Reference value :  1.05701e-10
 Reference value :  1.39907e-10
 Reference value :  2.76729e-10
 Reference value :  4.59159e-10
 Reference value :  9.68201e-10
 Reference value :  1.87931e-09
 Reference value :  3.17777e-09
 Reference value :  5.04939e-09
 Reference value :  6.74262e-09
 Reference value :  8.37847e-09
 Reference value :  1.07359e-08
 Reference value :  1.21446e-08
 Reference value :  1.31267e-08
 Reference value :  1.40745e-08
 Reference value :  1.49869e-08
 Reference value :  1.80406e-08
 Reference value :  2.52309e-08
 Reference value :  2.86591e-08
 Reference value :  3.26340e-08
 Reference value :  3.67295e-08
 Reference value :  4.12114e-08
 Reference value :  5.92198e-08
 Reference value :  7.47710e-08
 Reference value :  1.00502e-07
 Reference value :  1.33893e-07
 Reference value :  1.55684e-07
 Reference value :  1.77105e-07
 Reference value :  1.92120e-07
 Reference value :  2.08399e-07
 Reference value :  2.44160e-07
 Reference value :  2.50110e-07
 Reference value :  2.50170e-07
 Reference value :  2.50207e-07
 Reference value :  2.50252e-07
 Reference value :  2.50403e-07
 Reference value :  2.50748e-07
 Reference value :  2.51465e-07
 Reference value :  2.51916e-07
 Reference value :  2.52378e-07
 Reference value :  2.53681e-07
 Reference value :  2.54339e-07
 Reference value :  2.55612e-07
 Reference value :  2.57365e-07
 Reference value :  2.60462e-07
 Reference value :  2.66981e-07
 Reference value :  2.85632e-07
 Reference value :  3.38822e-07
 Reference value :  5.00000e-07
 Reference value :  5.00030e-07
 Reference value :  5.00100e-07
 Reference value :  5.00124e-07
 Reference value :  5.00155e-07
 Reference value :  5.00344e-07
 Reference value :  5.00884e-07
 Reference value :  5.01590e-07
 Reference value :  5.02512e-07
 Reference value :  5.03013e-07
 Reference value :  5.04136e-07
 Reference value :  5.05670e-07
 Reference value :  5.06888e-07
 Reference value :  5.08272e-07
 Reference value :  5.09391e-07
 Reference value :  5.10615e-07
 Reference value :  5.12016e-07
 Reference value :  5.13372e-07
 Reference value :  5.14777e-07
 Reference value :  5.16781e-07
 Reference value :  5.22415e-07
 Reference value :  5.56675e-07
 Reference value :  6.53486e-07
 Reference value :  7.50110e-07
 Reference value :  7.50170e-07
 Reference value :  7.50208e-07
 Reference value :  7.50256e-07
 Reference value :  7.50448e-07
 Reference value :  7.50874e-07
 Reference value :  7.51771e-07
 Reference value :  7.52219e-07
 Reference value :  7.53498e-07
 Reference value :  7.53996e-07
 Reference value :  7.55176e-07
 Reference value :  7.55867e-07
 Reference value :  7.57476e-07
 Reference value :  7.58465e-07
 Reference value :  7.61434e-07
 Reference value :  7.66554e-07
 Reference value :  7.92845e-07
 Reference value :  8.49515e-07
 Reference value :  1.00000e-06
 Reference value :  1.00003e-06
 Reference value :  1.00010e-06
 Reference value :  1.00012e-06
 Reference value :  1.00022e-06
 Reference value :  1.00053e-06
 Reference value :  1.00121e-06
 Reference value :  1.00163e-06
 Reference value :  1.00259e-06
 Reference value :  1.00309e-06
 Reference value :  1.00421e-06
 Reference value :  1.00472e-06
 Reference value :  1.00522e-06
 Reference value :  1.00645e-06
 Reference value :  1.00817e-06
 Reference value :  1.01020e-06
 Reference value :  1.01117e-06
 Reference value :  1.01210e-06
 Reference value :  1.01380e-06
 Reference value :  1.01551e-06
 Reference value :  1.01637e-06
 Reference value :  1.01728e-06
 Reference value :  1.01827e-06
 Reference value :  1.02119e-06
 Reference value :  1.02728e-06
 Reference value :  1.04585e-06
 Reference value :  1.10762e-06
 Reference value :  1.24429e-06
 Reference value :  1.25011e-06
 Reference value :  1.25017e-06
 Reference value :  1.25021e-06
 Reference value :  1.25032e-06
 Reference value :  1.25063e-06
 Reference value :  1.25136e-06
 Reference value :  1.25177e-06
 Reference value :  1.25280e-06
 Reference value :  1.25351e-06
 Reference value :  1.25400e-06
 Reference value :  1.25513e-06
 Reference value :  1.25582e-06
 Reference value :  1.25801e-06
 Reference value :  1.26263e-06
 Reference value :  1.27360e-06
 Reference value :  1.37139e-06
 Reference value :  1.50000e-06
 Reference value :  1.50003e-06
 Reference value :  1.50010e-06
 Reference value :  1.50012e-06
 Reference value :  1.50022e-06
 Reference value :  1.50053e-06
 Reference value :  1.50121e-06
 Reference value :  1.50159e-06
 Reference value :  1.50252e-06
 Reference value :  1.50301e-06
 Reference value :  1.50357e-06
 Reference value :  1.50490e-06
 Reference value :  1.50625e-06
 Reference value :  1.50796e-06
 Reference value :  1.50890e-06
 Reference value :  1.51102e-06
 Reference value :  1.51486e-06
 Reference value :  1.52611e-06
 Reference value :  1.56415e-06
 Reference value :  1.75010e-06
 Reference value :  1.75013e-06
 Reference value :  1.75020e-06
 Reference value :  1.75021e-06
 Reference value :  1.75022e-06
 Reference value :  1.75032e-06
 Reference value :  1.75045e-06
 Reference value :  1.75087e-06
 Reference value :  1.75177e-06
 Reference value :  1.75280e-06
 Reference value :  1.75350e-06
 Reference value :  1.75400e-06
 Reference value :  1.75518e-06
 Reference value :  1.75592e-06
 Reference value :  1.75669e-06
 Reference value :  1.75862e-06
 Reference value :  1.76166e-06
 Reference value :  1.76697e-06
 Reference value :  1.78040e-06
 Reference value :  1.81569e-06
 Reference value :  1.99926e-06
 Reference value :  2.00001e-06
 Reference value :  2.00007e-06
 Reference value :  2.00011e-06
 Reference value :  2.00016e-06
 Reference value :  2.00034e-06
 Reference value :  2.00089e-06
 Reference value :  2.00163e-06
 Reference value :  2.00259e-06
 Reference value :  2.00309e-06
 Reference value :  2.00365e-06
 Reference value :  2.00473e-06
 Reference value :  2.00523e-06
 Reference value :  2.00646e-06
 Reference value :  2.00819e-06
 Reference value :  2.01023e-06
 Reference value :  2.01121e-06
 Reference value :  2.01214e-06
 Reference value :  2.01384e-06
 Reference value :  2.01565e-06
 Reference value :  2.01654e-06
 Reference value :  2.01861e-06
 Reference value :  2.02169e-06
 Reference value :  2.03647e-06
 Reference value :  2.05966e-06
 Reference value :  2.07061e-06
 Reference value :  2.07763e-06
 Reference value :  2.08898e-06
 Reference value :  2.10364e-06
 Reference value :  2.12270e-06
 Reference value :  2.14578e-06
 Reference value :  2.18484e-06
 Reference value :  2.25010e-06
 Reference value :  2.25013e-06
 Reference value :  2.25020e-06
 Reference value :  2.25022e-06
 Reference value :  2.25032e-06
 Reference value :  2.25063e-06
 Reference value :  2.25136e-06
 Reference value :  2.25177e-06
 Reference value :  2.25280e-06
 Reference value :  2.25352e-06
 Reference value :  2.25402e-06
 Reference value :  2.25516e-06
 Reference value :  2.25585e-06
 Reference value :  2.25805e-06
 Reference value :  2.26272e-06
 Reference value :  2.27395e-06
 Reference value :  2.31627e-06
 Reference value :  2.46394e-06
 Reference value :  2.50001e-06
 Reference value :  2.50003e-06
 Reference value :  2.50010e-06
 Reference value :  2.50012e-06
 Reference value :  2.50016e-06
 Reference value :  2.50034e-06
 Reference value :  2.50088e-06
 Reference value :  2.50164e-06
 Reference value :  2.50259e-06
 Reference value :  2.50308e-06
 Reference value :  2.50365e-06
 Reference value :  2.50421e-06
 Reference value :  2.50493e-06
 Reference value :  2.50642e-06
 Reference value :  2.50804e-06
 Reference value :  2.50992e-06
 Reference value :  2.51109e-06
 Reference value :  2.51478e-06
 Reference value :  2.52420e-06
 Reference value :  2.55143e-06
 Reference value :  2.65336e-06
 Reference value :  2.75011e-06
 Reference value :  2.75017e-06
 Reference value :  2.75021e-06
 Reference value :  2.75022e-06
 Reference value :  2.75032e-06
 Reference value :  2.75063e-06
 Reference value :  2.75136e-06
 Reference value :  2.75177e-06
 Reference value :  2.75280e-06
 Reference value :  2.75350e-06
 Reference value :  2.75400e-06
 Reference value :  2.75518e-06
 Reference value :  2.75593e-06
 Reference value :  2.75669e-06
 Reference value :  2.75804e-06
 Reference value :  2.76280e-06
 Reference value :  2.77484e-06
 Reference value :  2.81733e-06
 Reference value :  2.98453e-06
 Reference value :  3.00003e-06
 Reference value :  3.00011e-06
 Reference value :  3.00016e-06
 Reference value :  3.00034e-06
 Reference value :  3.00089e-06
 Reference value :  3.00121e-06
 Reference value :  3.00164e-06
 Reference value :  3.00259e-06
 Reference value :  3.00308e-06
 Reference value :  3.00420e-06
 Reference value :  3.00528e-06
 Reference value :  3.00586e-06
 Reference value :  3.00758e-06
 Reference value :  3.00920e-06
 Reference value :  3.01121e-06
 Reference value :  3.01276e-06
 Reference value :  3.01406e-06
 Reference value :  3.01656e-06
 Reference value :  3.01922e-06
 Reference value :  3.02063e-06
 Reference value :  3.02295e-06
 Reference value :  3.03002e-06
 Reference value :  3.05160e-06
 Reference value :  3.07415e-06
 Reference value :  3.12716e-06
 Reference value :  3.15045e-06
 Reference value :  3.22396e-06
 Reference value :  3.25011e-06
 Reference value :  3.25017e-06
 Reference value :  3.25021e-06
 Reference value :  3.25026e-06
 Reference value :  3.25045e-06
 Reference value :  3.25087e-06
 Reference value :  3.25136e-06
 Reference value :  3.25177e-06
 Reference value :  3.25280e-06
 Reference value :  3.25352e-06
 Reference value :  3.25402e-06
 Reference value :  3.25515e-06
 Reference value :  3.25585e-06
 Reference value :  3.25804e-06
 Reference value :  3.26270e-06
 Reference value :  3.27388e-06
 Reference value :  3.31593e-06
 Reference value :  3.47872e-06
 Reference value :  3.50001e-06
 Reference value :  3.50007e-06
 Reference value :  3.50011e-06
 Reference value :  3.50016e-06
 Reference value :  3.50022e-06
 Reference value :  3.50053e-06
 Reference value :  3.50088e-06
 Reference value :  3.50164e-06
 Reference value :  3.50259e-06
 Reference value :  3.50308e-06
 Reference value :  3.50366e-06
 Reference value :  3.50494e-06
 Reference value :  3.50578e-06
 Reference value :  3.50645e-06
 Reference value :  3.50807e-06
 Reference value :  3.50994e-06
 Reference value :  3.51113e-06
 Reference value :  3.51484e-06
 Reference value :  3.53436e-06
 Reference value :  3.58456e-06
 Reference value :  3.75010e-06
 Reference value :  3.75013e-06
 Reference value :  3.75020e-06
 Reference value :  3.75022e-06
 Reference value :  3.75032e-06
 Reference value :  3.75063e-06
 Reference value :  3.75136e-06
 Reference value :  3.75177e-06
 Reference value :  3.75222e-06
 Reference value :  3.75280e-06
 Reference value :  3.75350e-06
 Reference value :  3.75400e-06
 Reference value :  3.75518e-06
 Reference value :  3.75593e-06
 Reference value :  3.75806e-06
 Reference value :  3.76282e-06
 Reference value :  3.77479e-06
 Reference value :  3.81686e-06
 Reference value :  3.98082e-06
 Reference value :  4.00000e-06
 Reference value :  4.00003e-06
 Reference value :  4.00011e-06
 Reference value :  4.00016e-06
 Reference value :  4.00034e-06
 Reference value :  4.00053e-06
 Reference value :  4.00121e-06
 Reference value :  4.00164e-06
 Reference value :  4.00259e-06
 Reference value :  4.00308e-06
 Reference value :  4.00420e-06
 Reference value :  4.00528e-06
 Reference value :  4.00586e-06
 Reference value :  4.00757e-06
 Reference value :  4.01119e-06
 Reference value :  4.01269e-06
 Reference value :  4.01400e-06
 Reference value :  4.01651e-06
 Reference value :  4.01910e-06
 Reference value :  4.02293e-06
 Reference value :  4.02952e-06
 Reference value :  4.04359e-06
 Reference value :  4.05949e-06
 Reference value :  4.06537e-06
 Reference value :  4.07837e-06
 Reference value :  4.08598e-06
 Reference value :  4.10197e-06
 Reference value :  4.14164e-06
 Reference value :  4.19496e-06
 Reference value :  4.22637e-06
 Reference value :  4.25011e-06
 Reference value :  4.25020e-06
 Reference value :  4.25026e-06
 Reference value :  4.25042e-06
 Reference value :  4.25082e-06
 Reference value :  4.25151e-06
 Reference value :  4.25240e-06
 Reference value :  4.25306e-06
 Reference value :  4.25371e-06
 Reference value :  4.25423e-06
 Reference value :  4.25483e-06
 Reference value :  4.25612e-06
 Reference value :  4.25841e-06
 Reference value :  4.26060e-06
 Reference value :  4.26791e-06
 Reference value :  4.27403e-06
 Reference value :  4.27855e-06
 Reference value :  4.28369e-06
 Reference value :  4.28953e-06
 Reference value :  4.30442e-06
 Reference value :  4.33037e-06
 Reference value :  4.37501e-06
 Reference value :  4.50000e-06
 Reference value :  4.50003e-06
 Reference value :  4.50010e-06
 Reference value :  4.50012e-06
 Reference value :  4.50022e-06
 Reference value :  4.50057e-06
 Reference value :  4.50138e-06
 Reference value :  4.50185e-06
 Reference value :  4.50242e-06
 Reference value :  4.50349e-06
 Reference value :  4.50408e-06
 Reference value :  4.50548e-06
 Reference value :  4.50607e-06
 Reference value :  4.50680e-06
 Reference value :  4.50860e-06
 Reference value :  4.50964e-06
 Reference value :  4.51199e-06
 Reference value :  4.51988e-06
 Reference value :  4.53736e-06
 Reference value :  4.55704e-06
 Reference value :  4.67358e-06
 Reference value :  4.75011e-06
 Reference value :  4.75017e-06
 Reference value :  4.75020e-06
 Reference value :  4.75021e-06
 Reference value :  4.75026e-06
 Reference value :  4.75032e-06
 Reference value :  4.75042e-06
 Reference value :  4.75061e-06
 Reference value :  4.75082e-06
 Reference value :  4.75111e-06
 Reference value :  4.75151e-06
 Reference value :  4.75195e-06
 Reference value :  4.75240e-06
 Reference value :  4.75373e-06
 Reference value :  4.75425e-06
 Reference value :  4.75543e-06
 Reference value :  4.75616e-06
 Reference value :  4.75844e-06
 Reference value :  4.76064e-06
 Reference value :  4.76351e-06
 Reference value :  4.77692e-06
 Reference value :  4.79317e-06
 Reference value :  4.88041e-06
 Reference value :  5.00000e-06
 Reference value :  5.00003e-06
 Reference value :  5.00007e-06
 Reference value :  5.00011e-06
 Reference value :  5.00016e-06
 Reference value :  5.00022e-06
 Reference value :  5.00057e-06
 Reference value :  5.00138e-06
 Reference value :  5.00185e-06
 Reference value :  5.00294e-06
 Reference value :  5.00348e-06
 Reference value :  5.00407e-06
 Reference value :  5.00468e-06
 Reference value :  5.00518e-06
 Reference value :  5.00650e-06
 Reference value :  5.00878e-06
 Reference value :  5.01066e-06
 Reference value :  5.01213e-06
 Reference value :  5.01373e-06
 Reference value :  5.01490e-06
 Reference value :  5.01616e-06
 Reference value :  5.01727e-06
 Reference value :  5.01973e-06
 Reference value :  5.02156e-06
 Reference value :  5.02689e-06
 Reference value :  5.03458e-06
 Reference value :  5.03940e-06
 Reference value :  5.04475e-06
 Reference value :  5.04844e-06
 Reference value :  5.05877e-06
 Reference value :  5.07190e-06
 Reference value :  5.08588e-06
 Reference value :  5.13939e-06
 Reference value :  5.25010e-06
 Reference value :  5.25013e-06
 Reference value :  5.25020e-06
 Reference value :  5.25022e-06
 Reference value :  5.25032e-06
 Reference value :  5.25061e-06
 Reference value :  5.25110e-06
 Reference value :  5.25152e-06
 Reference value :  5.25242e-06
 Reference value :  5.25309e-06
 Reference value :  5.25373e-06
 Reference value :  5.25427e-06
 Reference value :  5.25487e-06
 Reference value :  5.25543e-06
 Reference value :  5.25624e-06
 Reference value :  5.25868e-06
 Reference value :  5.26391e-06
 Reference value :  5.27863e-06
 Reference value :  5.33053e-06
 Reference value :  5.50000e-06
 Reference value :  5.50003e-06
 Reference value :  5.50010e-06
 Reference value :  5.50012e-06
 Reference value :  5.50022e-06
 Reference value :  5.50057e-06
 Reference value :  5.50096e-06
 Reference value :  5.50185e-06
 Reference value :  5.50241e-06
 Reference value :  5.50347e-06
 Reference value :  5.50469e-06
 Reference value :  5.50545e-06
 Reference value :  5.50603e-06
 Reference value :  5.50772e-06
 Reference value :  5.50860e-06
 Reference value :  5.50966e-06
 Reference value :  5.51203e-06
 Reference value :  5.51614e-06
 Reference value :  5.52645e-06
 Reference value :  5.55808e-06
 Reference value :  5.67777e-06
 Reference value :  5.75011e-06
 Reference value :  5.75017e-06
 Reference value :  5.75021e-06
 Reference value :  5.75026e-06
 Reference value :  5.75042e-06
 Reference value :  5.75082e-06
 Reference value :  5.75151e-06
 Reference value :  5.75240e-06
 Reference value :  5.75306e-06
 Reference value :  5.75425e-06
 Reference value :  5.75543e-06
 Reference value :  5.75616e-06
 Reference value :  5.75693e-06
 Reference value :  5.75868e-06
 Reference value :  5.76158e-06
 Reference value :  5.76665e-06
 Reference value :  5.77831e-06
 Reference value :  5.83341e-06
 Reference value :  5.93981e-06
 Reference value :  6.00001e-06
 Reference value :  6.00007e-06
 Reference value :  6.00011e-06
 Reference value :  6.00012e-06
 Reference value :  6.00022e-06
 Reference value :  6.00034e-06
 Reference value :  6.00096e-06
 Reference value :  6.00185e-06
 Reference value :  6.00294e-06
 Reference value :  6.00349e-06
 Reference value :  6.00474e-06
 Reference value :  6.00530e-06
 Reference value :  6.00662e-06
 Reference value :  6.00849e-06
 Reference value :  6.01062e-06
 Reference value :  6.01172e-06
 Reference value :  6.01285e-06
 Reference value :  6.01371e-06
 Reference value :  6.01550e-06
 Reference value :  6.01651e-06
 Reference value :  6.01846e-06
 Reference value :  6.01956e-06
 Reference value :  6.02341e-06
 Reference value :  6.03341e-06
 Reference value :  6.04766e-06
 Reference value :  6.10304e-06
 Reference value :  6.21075e-06
 Reference value :  6.25011e-06
 Reference value :  6.25017e-06
 Reference value :  6.25021e-06
 Reference value :  6.25026e-06
 Reference value :  6.25042e-06
 Reference value :  6.25079e-06
 Reference value :  6.25152e-06
 Reference value :  6.25242e-06
 Reference value :  6.25376e-06
 Reference value :  6.25429e-06
 Reference value :  6.25545e-06
 Reference value :  6.25621e-06
 Reference value :  6.25703e-06
 Reference value :  6.25854e-06
 Reference value :  6.26369e-06
 Reference value :  6.27805e-06
 Reference value :  6.32975e-06
 Reference value :  6.50000e-06
 Reference value :  6.50003e-06
 Reference value :  6.50010e-06
 Reference value :  6.50012e-06
 Reference value :  6.50022e-06
 Reference value :  6.50057e-06
 Reference value :  6.50138e-06
 Reference value :  6.50241e-06
 Reference value :  6.50347e-06
 Reference value :  6.50468e-06
 Reference value :  6.50545e-06
 Reference value :  6.50603e-06
 Reference value :  6.50772e-06
 Reference value :  6.50859e-06
 Reference value :  6.51062e-06
 Reference value :  6.51201e-06
 Reference value :  6.51609e-06
 Reference value :  6.52630e-06
 Reference value :  6.55744e-06
 Reference value :  6.67529e-06
 Reference value :  6.75011e-06
 Reference value :  6.75017e-06
 Reference value :  6.75020e-06
 Reference value :  6.75022e-06
 Reference value :  6.75032e-06
 Reference value :  6.75061e-06
 Reference value :  6.75111e-06
 Reference value :  6.75151e-06
 Reference value :  6.75240e-06
 Reference value :  6.75306e-06
 Reference value :  6.75426e-06
 Reference value :  6.75544e-06
 Reference value :  6.75616e-06
 Reference value :  6.75771e-06
 Reference value :  6.75981e-06
 Reference value :  6.76369e-06
 Reference value :  6.77218e-06
 Reference value :  6.79219e-06
 Reference value :  6.84113e-06
 Reference value :  6.96363e-06
 Reference value :  7.00001e-06
 Reference value :  7.00007e-06
 Reference value :  7.00011e-06
 Reference value :  7.00016e-06
 Reference value :  7.00034e-06
 Reference value :  7.00096e-06
 Reference value :  7.00185e-06
 Reference value :  7.00294e-06
 Reference value :  7.00349e-06
 Reference value :  7.00474e-06
 Reference value :  7.00530e-06
 Reference value :  7.00662e-06
 Reference value :  7.00849e-06
 Reference value :  7.01062e-06
 Reference value :  7.01172e-06
 Reference value :  7.01285e-06
 Reference value :  7.01371e-06
 Reference value :  7.01453e-06
 Reference value :  7.01551e-06
 Reference value :  7.01745e-06
 Reference value :  7.01847e-06
 Reference value :  7.02135e-06
 Reference value :  7.02758e-06
 Reference value :  7.04087e-06
 Reference value :  7.08230e-06
 Reference value :  7.20929e-06
 Reference value :  7.25011e-06
 Reference value :  7.25017e-06
 Reference value :  7.25021e-06
 Reference value :  7.25026e-06
 Reference value :  7.25042e-06
 Reference value :  7.25079e-06
 Reference value :  7.25152e-06
 Reference value :  7.25242e-06
 Reference value :  7.25309e-06
 Reference value :  7.25429e-06
 Reference value :  7.25545e-06
 Reference value :  7.25621e-06
 Reference value :  7.25854e-06
 Reference value :  7.26369e-06
 Reference value :  7.27805e-06
 Reference value :  7.32956e-06
 Reference value :  7.39689e-06
 Reference value :  7.50001e-06
 Reference value :  7.50007e-06
 Reference value :  7.50011e-06
 Reference value :  7.50016e-06
 Reference value :  7.50034e-06
 Reference value :  7.50096e-06
 Reference value :  7.50185e-06
 Reference value :  7.50294e-06
 Reference value :  7.50347e-06
 Reference value :  7.50468e-06
 Reference value :  7.50545e-06
 Reference value :  7.50603e-06
 Reference value :  7.50772e-06
 Reference value :  7.50859e-06
 Reference value :  7.51062e-06
 Reference value :  7.51344e-06
 Reference value :  7.51990e-06
 Reference value :  7.55716e-06
 Reference value :  7.75010e-06
 Reference value :  7.75013e-06
 Reference value :  7.75020e-06
 Reference value :  7.75022e-06
 Reference value :  7.75032e-06
 Reference value :  7.75061e-06
 Reference value :  7.75111e-06
 Reference value :  7.75151e-06
 Reference value :  7.75240e-06
 Reference value :  7.75374e-06
 Reference value :  7.75426e-06
 Reference value :  7.75544e-06
 Reference value :  7.75616e-06
 Reference value :  7.75771e-06
 Reference value :  7.75981e-06
 Reference value :  7.76369e-06
 Reference value :  7.77218e-06
 Reference value :  7.79218e-06
 Reference value :  7.84111e-06
 Reference value :  7.96355e-06
 Reference value :  8.00001e-06
 Reference value :  8.00007e-06
 Reference value :  8.00011e-06
 Reference value :  8.00016e-06
 Reference value :  8.00034e-06
 Reference value :  8.00096e-06
 Reference value :  8.00185e-06
 Reference value :  8.00294e-06
 Reference value :  8.00350e-06
 Reference value :  8.00409e-06
 Reference value :  8.00530e-06
 Reference value :  8.00664e-06
 Reference value :  8.00739e-06
 Reference value :  8.00820e-06
 Reference value :  8.00974e-06
 Reference value :  8.01159e-06
 Reference value :  8.01449e-06
 Reference value :  8.01860e-06
 Reference value :  8.02383e-06
 Reference value :  8.02719e-06
 Reference value :  8.03076e-06
 Reference value :  8.03421e-06
 Reference value :  8.04157e-06
 Reference value :  8.05792e-06
 Reference value :  8.08213e-06
 Reference value :  8.15658e-06
 Reference value :  8.25010e-06
 Reference value :  8.25013e-06
 Reference value :  8.25020e-06
 Reference value :  8.25022e-06
 Reference value :  8.25026e-06
 Reference value :  8.25045e-06
 Reference value :  8.25083e-06
 Reference value :  8.25122e-06
 Reference value :  8.25160e-06
 Reference value :  8.25204e-06
 Reference value :  8.25324e-06
 Reference value :  8.25395e-06
 Reference value :  8.25580e-06
 Reference value :  8.25845e-06
 Reference value :  8.26321e-06
 Reference value :  8.27464e-06
 Reference value :  8.32039e-06
 Reference value :  8.50000e-06
 Reference value :  8.50003e-06
 Reference value :  8.50007e-06
 Reference value :  8.50011e-06
 Reference value :  8.50016e-06
 Reference value :  8.50034e-06
 Reference value :  8.50096e-06
 Reference value :  8.50141e-06
 Reference value :  8.50196e-06
 Reference value :  8.50248e-06
 Reference value :  8.50309e-06
 Reference value :  8.50367e-06
 Reference value :  8.50427e-06
 Reference value :  8.50473e-06
 Reference value :  8.50594e-06
 Reference value :  8.50664e-06
 Reference value :  8.50976e-06
 Reference value :  8.51803e-06
 Reference value :  8.52376e-06
 Reference value :  8.52961e-06
 Reference value :  8.53357e-06
 Reference value :  8.53694e-06
 Reference value :  8.53903e-06
 Reference value :  8.54126e-06
 Reference value :  8.54356e-06
 Reference value :  8.54598e-06
 Reference value :  8.54918e-06
 Reference value :  8.55272e-06
 Reference value :  8.55698e-06
 Reference value :  8.56224e-06
 Reference value :  8.56844e-06
 Reference value :  8.57839e-06
 Reference value :  8.58779e-06
 Reference value :  8.59981e-06
 Reference value :  8.61445e-06
 Reference value :  8.63625e-06
 Reference value :  8.66012e-06
 Reference value :  8.69137e-06
 Reference value :  8.72367e-06
 Reference value :  8.75010e-06
 Reference value :  8.75011e-06
 Reference value :  8.75013e-06
 Reference value :  8.75020e-06
 Reference value :  8.75022e-06
 Reference value :  8.75032e-06
 Reference value :  8.75063e-06
 Reference value :  8.75087e-06
 Reference value :  8.75136e-06
 Reference value :  8.75177e-06
 Reference value :  8.75222e-06
 Reference value :  8.75281e-06
 Reference value :  8.75347e-06
 Reference value :  8.75396e-06
 Reference value :  8.75453e-06
 Reference value :  8.75506e-06
 Reference value :  8.75573e-06
 Reference value :  8.75788e-06
 Reference value :  8.76234e-06
 Reference value :  8.77260e-06
 Reference value :  8.77989e-06
 Reference value :  8.78664e-06
 Reference value :  8.80271e-06
 Reference value :  8.81757e-06
 Reference value :  8.87946e-06
 Reference value :  9.00000e-06
No. of Data Rows : 1363
ngspice-44 done
