
Note: Compatibility modes selected: hs a


Circuit: ** sch_path: /home/samantha/cace/sar-adc-using-sky130-pdk/runs/run_2025-09-03_21-46-28/parameters/sampling_rate/run_0/sampling_rate.sch

option SCALE: Scale is set to 1e-06 for instance and model parameters
option SCALE: Scale is set to 1e-06 for instance and model parameters
option SCALE: Scale is set to 1e-06 for instance and model parameters
option SCALE: Scale is set to 1e-06 for instance and model parameters
Doing analysis at TEMP = 27.000000 and TNOM = 27.000000

Using KLU as Direct Linear Solver
Operating point simulation skipped by 'uic',
  now using transient initial conditions.
 Reference value :  1.00000e-12
 Reference value :  1.02800e-12
 Reference value :  1.08400e-12
 Reference value :  1.19600e-12
 Reference value :  1.42000e-12
 Reference value :  1.69268e-12
 Reference value :  2.23803e-12
 Reference value :  3.20317e-12
 Reference value :  4.44076e-12
 Reference value :  6.47154e-12
 Reference value :  1.38694e-11
 Reference value :  3.46901e-11
 Reference value :  6.24510e-11
 Reference value :  1.00000e-10
 Reference value :  1.05552e-10
 Reference value :  1.16657e-10
 Reference value :  1.83283e-10
 Reference value :  2.72117e-10
 Reference value :  4.49787e-10
 Reference value :  6.84231e-10
 Reference value :  9.80320e-10
 Reference value :  1.35859e-09
 Reference value :  1.83499e-09
 Reference value :  2.49744e-09
 Reference value :  3.13506e-09
 Reference value :  4.02864e-09
 Reference value :  4.96815e-09
 Reference value :  5.94677e-09
 Reference value :  6.62389e-09
 Reference value :  7.26566e-09
 Reference value :  7.96740e-09
 Reference value :  9.66981e-09
 Reference value :  1.06862e-08
 Reference value :  1.15046e-08
 Reference value :  1.23140e-08
 Reference value :  1.31047e-08
 Reference value :  1.53906e-08
 Reference value :  1.82169e-08
 Reference value :  2.49295e-08
 Reference value :  3.27870e-08
 Reference value :  3.68959e-08
 Reference value :  4.24448e-08
 Reference value :  5.77293e-08
 Reference value :  1.01886e-07
 Reference value :  1.50751e-07
 Reference value :  2.48481e-07
 Reference value :  2.50110e-07
 Reference value :  2.50130e-07
 Reference value :  2.50170e-07
 Reference value :  2.50200e-07
 Reference value :  2.50208e-07
 Reference value :  2.50223e-07
 Reference value :  2.50254e-07
 Reference value :  2.50312e-07
 Reference value :  2.50389e-07
 Reference value :  2.50542e-07
 Reference value :  2.50957e-07
 Reference value :  2.51285e-07
 Reference value :  2.51695e-07
 Reference value :  2.52120e-07
 Reference value :  2.53257e-07
 Reference value :  2.53738e-07
 Reference value :  2.54261e-07
 Reference value :  2.54793e-07
 Reference value :  2.55485e-07
 Reference value :  2.56198e-07
 Reference value :  2.57478e-07
 Reference value :  2.58753e-07
 Reference value :  2.64007e-07
 Reference value :  2.69690e-07
 Reference value :  2.80577e-07
 Reference value :  2.98118e-07
 Reference value :  3.33200e-07
 Reference value :  4.03364e-07
 Reference value :  5.00010e-07
 Reference value :  5.00070e-07
 Reference value :  5.00100e-07
 Reference value :  5.00124e-07
 Reference value :  5.00219e-07
 Reference value :  5.00337e-07
 Reference value :  5.00513e-07
 Reference value :  5.00822e-07
 Reference value :  5.01184e-07
 Reference value :  5.01575e-07
 Reference value :  5.02012e-07
 Reference value :  5.02415e-07
 Reference value :  5.02908e-07
 Reference value :  5.03447e-07
 Reference value :  5.04022e-07
 Reference value :  5.04762e-07
 Reference value :  5.05576e-07
 Reference value :  5.06705e-07
 Reference value :  5.07728e-07
 Reference value :  5.08814e-07
 Reference value :  5.09967e-07
 Reference value :  5.11180e-07
 Reference value :  5.12336e-07
 Reference value :  5.13716e-07
 Reference value :  5.15627e-07
 Reference value :  5.17406e-07
 Reference value :  5.25632e-07
 Reference value :  5.47944e-07
 Reference value :  5.76499e-07
 Reference value :  6.33608e-07
 Reference value :  7.47828e-07
 Reference value :  7.50110e-07
 Reference value :  7.50130e-07
 Reference value :  7.50170e-07
 Reference value :  7.50200e-07
 Reference value :  7.50224e-07
 Reference value :  7.50256e-07
 Reference value :  7.50320e-07
 Reference value :  7.50448e-07
 Reference value :  7.50584e-07
 Reference value :  7.50819e-07
 Reference value :  7.51288e-07
 Reference value :  7.51723e-07
 Reference value :  7.52148e-07
 Reference value :  7.52770e-07
 Reference value :  7.53306e-07
 Reference value :  7.53899e-07
 Reference value :  7.55056e-07
 Reference value :  7.55752e-07
 Reference value :  7.58074e-07
 Reference value :  7.60114e-07
 Reference value :  7.68826e-07
 Reference value :  8.02228e-07
 Reference value :  9.35832e-07
 Reference value :  1.00001e-06
 Reference value :  1.00007e-06
 Reference value :  1.00011e-06
 Reference value :  1.00012e-06
 Reference value :  1.00016e-06
 Reference value :  1.00022e-06
 Reference value :  1.00034e-06
 Reference value :  1.00082e-06
 Reference value :  1.00118e-06
 Reference value :  1.00158e-06
 Reference value :  1.00201e-06
 Reference value :  1.00242e-06
 Reference value :  1.00289e-06
 Reference value :  1.00341e-06
 Reference value :  1.00396e-06
 Reference value :  1.00450e-06
 Reference value :  1.00500e-06
 Reference value :  1.00554e-06
 Reference value :  1.00636e-06
 Reference value :  1.00714e-06
 Reference value :  1.00863e-06
 Reference value :  1.01002e-06
 Reference value :  1.01122e-06
 Reference value :  1.01220e-06
 Reference value :  1.01314e-06
 Reference value :  1.01419e-06
 Reference value :  1.01513e-06
 Reference value :  1.01611e-06
 Reference value :  1.01878e-06
 Reference value :  1.02325e-06
 Reference value :  1.02788e-06
 Reference value :  1.03602e-06
 Reference value :  1.03985e-06
 Reference value :  1.04324e-06
 Reference value :  1.04624e-06
 Reference value :  1.04943e-06
 Reference value :  1.05269e-06
 Reference value :  1.05612e-06
 Reference value :  1.06229e-06
 Reference value :  1.06849e-06
 Reference value :  1.07470e-06
 Reference value :  1.08950e-06
 Reference value :  1.12328e-06
 Reference value :  1.16091e-06
 Reference value :  1.22901e-06
 Reference value :  1.25011e-06
 Reference value :  1.25017e-06
 Reference value :  1.25020e-06
 Reference value :  1.25021e-06
 Reference value :  1.25026e-06
 Reference value :  1.25045e-06
 Reference value :  1.25058e-06
 Reference value :  1.25082e-06
 Reference value :  1.25129e-06
 Reference value :  1.25172e-06
 Reference value :  1.25215e-06
 Reference value :  1.25277e-06
 Reference value :  1.25326e-06
 Reference value :  1.25436e-06
 Reference value :  1.25492e-06
 Reference value :  1.25578e-06
 Reference value :  1.25677e-06
 Reference value :  1.26036e-06
 Reference value :  1.26989e-06
 Reference value :  1.30766e-06
 Reference value :  1.35803e-06
 Reference value :  1.50000e-06
 Reference value :  1.50003e-06
 Reference value :  1.50007e-06
 Reference value :  1.50011e-06
 Reference value :  1.50016e-06
 Reference value :  1.50022e-06
 Reference value :  1.50034e-06
 Reference value :  1.50082e-06
 Reference value :  1.50118e-06
 Reference value :  1.50154e-06
 Reference value :  1.50235e-06
 Reference value :  1.50282e-06
 Reference value :  1.50333e-06
 Reference value :  1.50465e-06
 Reference value :  1.50537e-06
 Reference value :  1.50595e-06
 Reference value :  1.50665e-06
 Reference value :  1.50740e-06
 Reference value :  1.50822e-06
 Reference value :  1.51025e-06
 Reference value :  1.51641e-06
 Reference value :  1.53972e-06
 Reference value :  1.63298e-06
 Reference value :  1.75011e-06
 Reference value :  1.75017e-06
 Reference value :  1.75021e-06
 Reference value :  1.75026e-06
 Reference value :  1.75032e-06
 Reference value :  1.75058e-06
 Reference value :  1.75082e-06
 Reference value :  1.75129e-06
 Reference value :  1.75172e-06
 Reference value :  1.75215e-06
 Reference value :  1.75277e-06
 Reference value :  1.75330e-06
 Reference value :  1.75450e-06
 Reference value :  1.75505e-06
 Reference value :  1.75575e-06
 Reference value :  1.75737e-06
 Reference value :  1.75818e-06
 Reference value :  1.75950e-06
 Reference value :  1.76091e-06
 Reference value :  1.76683e-06
 Reference value :  1.77349e-06
 Reference value :  1.81346e-06
 Reference value :  1.97334e-06
 Reference value :  2.00001e-06
 Reference value :  2.00003e-06
 Reference value :  2.00010e-06
 Reference value :  2.00012e-06
 Reference value :  2.00016e-06
 Reference value :  2.00034e-06
 Reference value :  2.00082e-06
 Reference value :  2.00158e-06
 Reference value :  2.00242e-06
 Reference value :  2.00290e-06
 Reference value :  2.00342e-06
 Reference value :  2.00390e-06
 Reference value :  2.00483e-06
 Reference value :  2.00596e-06
 Reference value :  2.00665e-06
 Reference value :  2.00766e-06
 Reference value :  2.00847e-06
 Reference value :  2.00932e-06
 Reference value :  2.01016e-06
 Reference value :  2.01111e-06
 Reference value :  2.01189e-06
 Reference value :  2.01349e-06
 Reference value :  2.01436e-06
 Reference value :  2.01618e-06
 Reference value :  2.01715e-06
 Reference value :  2.01869e-06
 Reference value :  2.02032e-06
 Reference value :  2.02861e-06
 Reference value :  2.05083e-06
 Reference value :  2.07969e-06
 Reference value :  2.12073e-06
 Reference value :  2.22620e-06
 Reference value :  2.25010e-06
 Reference value :  2.25011e-06
 Reference value :  2.25013e-06
 Reference value :  2.25017e-06
 Reference value :  2.25021e-06
 Reference value :  2.25022e-06
 Reference value :  2.25026e-06
 Reference value :  2.25045e-06
 Reference value :  2.25082e-06
 Reference value :  2.25129e-06
 Reference value :  2.25172e-06
 Reference value :  2.25215e-06
 Reference value :  2.25277e-06
 Reference value :  2.25331e-06
 Reference value :  2.25389e-06
 Reference value :  2.25450e-06
 Reference value :  2.25508e-06
 Reference value :  2.25599e-06
 Reference value :  2.25862e-06
 Reference value :  2.26463e-06
 Reference value :  2.28560e-06
 Reference value :  2.36712e-06
 Reference value :  2.50000e-06
 Reference value :  2.50003e-06
 Reference value :  2.50010e-06
 Reference value :  2.50012e-06
 Reference value :  2.50016e-06
 Reference value :  2.50022e-06
 Reference value :  2.50034e-06
 Reference value :  2.50051e-06
 Reference value :  2.50082e-06
 Reference value :  2.50118e-06
 Reference value :  2.50154e-06
 Reference value :  2.50195e-06
 Reference value :  2.50235e-06
 Reference value :  2.50282e-06
 Reference value :  2.50333e-06
 Reference value :  2.50389e-06
 Reference value :  2.50464e-06
 Reference value :  2.50537e-06
 Reference value :  2.50595e-06
 Reference value :  2.50665e-06
 Reference value :  2.50740e-06
 Reference value :  2.50822e-06
 Reference value :  2.50922e-06
 Reference value :  2.51025e-06
 Reference value :  2.51642e-06
 Reference value :  2.53962e-06
 Reference value :  2.57056e-06
 Reference value :  2.75010e-06
 Reference value :  2.75013e-06
 Reference value :  2.75020e-06
 Reference value :  2.75022e-06
 Reference value :  2.75026e-06
 Reference value :  2.75045e-06
 Reference value :  2.75058e-06
 Reference value :  2.75129e-06
 Reference value :  2.75172e-06
 Reference value :  2.75215e-06
 Reference value :  2.75277e-06
 Reference value :  2.75330e-06
 Reference value :  2.75444e-06
 Reference value :  2.75500e-06
 Reference value :  2.75570e-06
 Reference value :  2.75728e-06
 Reference value :  2.75957e-06
 Reference value :  2.76090e-06
 Reference value :  2.76662e-06
 Reference value :  2.78514e-06
 Reference value :  2.80984e-06
 Reference value :  2.85924e-06
 Reference value :  3.00000e-06
 Reference value :  3.00003e-06
 Reference value :  3.00007e-06
 Reference value :  3.00010e-06
 Reference value :  3.00012e-06
 Reference value :  3.00016e-06
 Reference value :  3.00034e-06
 Reference value :  3.00051e-06
 Reference value :  3.00082e-06
 Reference value :  3.00118e-06
 Reference value :  3.00158e-06
 Reference value :  3.00201e-06
 Reference value :  3.00242e-06
 Reference value :  3.00290e-06
 Reference value :  3.00342e-06
 Reference value :  3.00390e-06
 Reference value :  3.00440e-06
 Reference value :  3.00483e-06
 Reference value :  3.00597e-06
 Reference value :  3.00666e-06
 Reference value :  3.00767e-06
 Reference value :  3.00847e-06
 Reference value :  3.00932e-06
 Reference value :  3.01017e-06
 Reference value :  3.01112e-06
 Reference value :  3.01189e-06
 Reference value :  3.01265e-06
 Reference value :  3.01348e-06
 Reference value :  3.01521e-06
 Reference value :  3.01615e-06
 Reference value :  3.01862e-06
 Reference value :  3.02319e-06
 Reference value :  3.03567e-06
 Reference value :  3.06298e-06
 Reference value :  3.07816e-06
 Reference value :  3.08974e-06
 Reference value :  3.10041e-06
 Reference value :  3.10509e-06
 Reference value :  3.11501e-06
 Reference value :  3.12303e-06
 Reference value :  3.14581e-06
 Reference value :  3.16207e-06
 Reference value :  3.21541e-06
 Reference value :  3.25011e-06
 Reference value :  3.25017e-06
 Reference value :  3.25021e-06
 Reference value :  3.25026e-06
 Reference value :  3.25045e-06
 Reference value :  3.25082e-06
 Reference value :  3.25172e-06
 Reference value :  3.25277e-06
 Reference value :  3.25333e-06
 Reference value :  3.25454e-06
 Reference value :  3.25607e-06
 Reference value :  3.25876e-06
 Reference value :  3.26504e-06
 Reference value :  3.28760e-06
 Reference value :  3.30499e-06
 Reference value :  3.32087e-06
 Reference value :  3.33791e-06
 Reference value :  3.34966e-06
 Reference value :  3.37220e-06
 Reference value :  3.39318e-06
 Reference value :  3.44646e-06
 Reference value :  3.50000e-06
 Reference value :  3.50001e-06
 Reference value :  3.50007e-06
 Reference value :  3.50011e-06
 Reference value :  3.50022e-06
 Reference value :  3.50051e-06
 Reference value :  3.50082e-06
 Reference value :  3.50154e-06
 Reference value :  3.50195e-06
 Reference value :  3.50235e-06
 Reference value :  3.50282e-06
 Reference value :  3.50333e-06
 Reference value :  3.50389e-06
 Reference value :  3.50465e-06
 Reference value :  3.50537e-06
 Reference value :  3.50596e-06
 Reference value :  3.50665e-06
 Reference value :  3.50740e-06
 Reference value :  3.50922e-06
 Reference value :  3.51230e-06
 Reference value :  3.53949e-06
 Reference value :  3.63182e-06
 Reference value :  3.75011e-06
 Reference value :  3.75017e-06
 Reference value :  3.75021e-06
 Reference value :  3.75026e-06
 Reference value :  3.75045e-06
 Reference value :  3.75082e-06
 Reference value :  3.75172e-06
 Reference value :  3.75215e-06
 Reference value :  3.75330e-06
 Reference value :  3.75390e-06
 Reference value :  3.75505e-06
 Reference value :  3.75575e-06
 Reference value :  3.75653e-06
 Reference value :  3.75818e-06
 Reference value :  3.75949e-06
 Reference value :  3.76349e-06
 Reference value :  3.77346e-06
 Reference value :  3.81333e-06
 Reference value :  3.97283e-06
 Reference value :  4.00001e-06
 Reference value :  4.00007e-06
 Reference value :  4.00011e-06
 Reference value :  4.00016e-06
 Reference value :  4.00034e-06
 Reference value :  4.00082e-06
 Reference value :  4.00158e-06
 Reference value :  4.00242e-06
 Reference value :  4.00290e-06
 Reference value :  4.00390e-06
 Reference value :  4.00483e-06
 Reference value :  4.00597e-06
 Reference value :  4.00665e-06
 Reference value :  4.00767e-06
 Reference value :  4.00847e-06
 Reference value :  4.01017e-06
 Reference value :  4.01112e-06
 Reference value :  4.01190e-06
 Reference value :  4.01353e-06
 Reference value :  4.01529e-06
 Reference value :  4.01625e-06
 Reference value :  4.01881e-06
 Reference value :  4.02368e-06
 Reference value :  4.02702e-06
 Reference value :  4.03036e-06
 Reference value :  4.03277e-06
 Reference value :  4.03728e-06
 Reference value :  4.04348e-06
 Reference value :  4.05404e-06
 Reference value :  4.06979e-06
 Reference value :  4.10343e-06
 Reference value :  4.17742e-06
 Reference value :  4.25011e-06
 Reference value :  4.25017e-06
 Reference value :  4.25021e-06
 Reference value :  4.25026e-06
 Reference value :  4.25039e-06
 Reference value :  4.25071e-06
 Reference value :  4.25140e-06
 Reference value :  4.25227e-06
 Reference value :  4.25291e-06
 Reference value :  4.25418e-06
 Reference value :  4.25547e-06
 Reference value :  4.25777e-06
 Reference value :  4.26231e-06
 Reference value :  4.27734e-06
 Reference value :  4.33746e-06
 Reference value :  4.50000e-06
 Reference value :  4.50003e-06
 Reference value :  4.50010e-06
 Reference value :  4.50012e-06
 Reference value :  4.50022e-06
 Reference value :  4.50058e-06
 Reference value :  4.50136e-06
 Reference value :  4.50230e-06
 Reference value :  4.50340e-06
 Reference value :  4.50459e-06
 Reference value :  4.50537e-06
 Reference value :  4.50595e-06
 Reference value :  4.50662e-06
 Reference value :  4.50747e-06
 Reference value :  4.50921e-06
 Reference value :  4.51025e-06
 Reference value :  4.51364e-06
 Reference value :  4.53242e-06
 Reference value :  4.64993e-06
 Reference value :  4.75011e-06
 Reference value :  4.75017e-06
 Reference value :  4.75021e-06
 Reference value :  4.75026e-06
 Reference value :  4.75039e-06
 Reference value :  4.75096e-06
 Reference value :  4.75180e-06
 Reference value :  4.75227e-06
 Reference value :  4.75290e-06
 Reference value :  4.75414e-06
 Reference value :  4.75472e-06
 Reference value :  4.75607e-06
 Reference value :  4.75856e-06
 Reference value :  4.77217e-06
 Reference value :  4.87850e-06
 Reference value :  5.00001e-06
 Reference value :  5.00007e-06
 Reference value :  5.00011e-06
 Reference value :  5.00016e-06
 Reference value :  5.00035e-06
 Reference value :  5.00090e-06
 Reference value :  5.00183e-06
 Reference value :  5.00281e-06
 Reference value :  5.00394e-06
 Reference value :  5.00492e-06
 Reference value :  5.00617e-06
 Reference value :  5.00840e-06
 Reference value :  5.01119e-06
 Reference value :  5.01226e-06
 Reference value :  5.01435e-06
 Reference value :  5.01535e-06
 Reference value :  5.01754e-06
 Reference value :  5.01919e-06
 Reference value :  5.02420e-06
 Reference value :  5.03571e-06
 Reference value :  5.04869e-06
 Reference value :  5.05356e-06
 Reference value :  5.06405e-06
 Reference value :  5.07862e-06
 Reference value :  5.10208e-06
 Reference value :  5.11084e-06
 Reference value :  5.11658e-06
 Reference value :  5.13010e-06
 Reference value :  5.14658e-06
 Reference value :  5.17606e-06
 Reference value :  5.25010e-06
 Reference value :  5.25013e-06
 Reference value :  5.25020e-06
 Reference value :  5.25022e-06
 Reference value :  5.25032e-06
 Reference value :  5.25053e-06
 Reference value :  5.25095e-06
 Reference value :  5.25178e-06
 Reference value :  5.25285e-06
 Reference value :  5.25404e-06
 Reference value :  5.25521e-06
 Reference value :  5.25713e-06
 Reference value :  5.26114e-06
 Reference value :  5.27429e-06
 Reference value :  5.39175e-06
 Reference value :  5.50003e-06
 Reference value :  5.50010e-06
 Reference value :  5.50012e-06
 Reference value :  5.50022e-06
 Reference value :  5.50057e-06
 Reference value :  5.50136e-06
 Reference value :  5.50230e-06
 Reference value :  5.50339e-06
 Reference value :  5.50458e-06
 Reference value :  5.50594e-06
 Reference value :  5.50746e-06
 Reference value :  5.50920e-06
 Reference value :  5.51023e-06
 Reference value :  5.51362e-06
 Reference value :  5.52259e-06
 Reference value :  5.54975e-06
 Reference value :  5.65233e-06
 Reference value :  5.75011e-06
 Reference value :  5.75017e-06
 Reference value :  5.75021e-06
 Reference value :  5.75026e-06
 Reference value :  5.75039e-06
 Reference value :  5.75071e-06
 Reference value :  5.75140e-06
 Reference value :  5.75227e-06
 Reference value :  5.75290e-06
 Reference value :  5.75414e-06
 Reference value :  5.75471e-06
 Reference value :  5.75606e-06
 Reference value :  5.75855e-06
 Reference value :  5.76456e-06
 Reference value :  5.78727e-06
 Reference value :  5.87814e-06
 Reference value :  6.00000e-06
 Reference value :  6.00003e-06
 Reference value :  6.00010e-06
 Reference value :  6.00012e-06
 Reference value :  6.00022e-06
 Reference value :  6.00057e-06
 Reference value :  6.00136e-06
 Reference value :  6.00230e-06
 Reference value :  6.00339e-06
 Reference value :  6.00445e-06
 Reference value :  6.00492e-06
 Reference value :  6.00617e-06
 Reference value :  6.00840e-06
 Reference value :  6.01119e-06
 Reference value :  6.01226e-06
 Reference value :  6.01435e-06
 Reference value :  6.01535e-06
 Reference value :  6.01754e-06
 Reference value :  6.01919e-06
 Reference value :  6.02419e-06
 Reference value :  6.03574e-06
 Reference value :  6.05122e-06
 Reference value :  6.05699e-06
 Reference value :  6.06267e-06
 Reference value :  6.06977e-06
 Reference value :  6.08803e-06
 Reference value :  6.11807e-06
 Reference value :  6.19157e-06
 Reference value :  6.25010e-06
 Reference value :  6.25013e-06
 Reference value :  6.25020e-06
 Reference value :  6.25022e-06
 Reference value :  6.25032e-06
 Reference value :  6.25053e-06
 Reference value :  6.25095e-06
 Reference value :  6.25178e-06
 Reference value :  6.25285e-06
 Reference value :  6.25406e-06
 Reference value :  6.25530e-06
 Reference value :  6.25743e-06
 Reference value :  6.26161e-06
 Reference value :  6.27444e-06
 Reference value :  6.32577e-06
 Reference value :  6.50000e-06
 Reference value :  6.50003e-06
 Reference value :  6.50010e-06
 Reference value :  6.50012e-06
 Reference value :  6.50022e-06
 Reference value :  6.50057e-06
 Reference value :  6.50136e-06
 Reference value :  6.50230e-06
 Reference value :  6.50281e-06
 Reference value :  6.50336e-06
 Reference value :  6.50455e-06
 Reference value :  6.50589e-06
 Reference value :  6.50749e-06
 Reference value :  6.50925e-06
 Reference value :  6.51032e-06
 Reference value :  6.51386e-06
 Reference value :  6.53424e-06
 Reference value :  6.59004e-06
 Reference value :  6.75010e-06
 Reference value :  6.75013e-06
 Reference value :  6.75020e-06
 Reference value :  6.75022e-06
 Reference value :  6.75032e-06
 Reference value :  6.75053e-06
 Reference value :  6.75096e-06
 Reference value :  6.75140e-06
 Reference value :  6.75227e-06
 Reference value :  6.75290e-06
 Reference value :  6.75413e-06
 Reference value :  6.75471e-06
 Reference value :  6.75530e-06
 Reference value :  6.75607e-06
 Reference value :  6.75689e-06
 Reference value :  6.75770e-06
 Reference value :  6.76002e-06
 Reference value :  6.76421e-06
 Reference value :  6.79309e-06
 Reference value :  6.89001e-06
 Reference value :  7.00001e-06
 Reference value :  7.00007e-06
 Reference value :  7.00011e-06
 Reference value :  7.00016e-06
 Reference value :  7.00035e-06
 Reference value :  7.00090e-06
 Reference value :  7.00183e-06
 Reference value :  7.00230e-06
 Reference value :  7.00281e-06
 Reference value :  7.00338e-06
 Reference value :  7.00393e-06
 Reference value :  7.00491e-06
 Reference value :  7.00618e-06
 Reference value :  7.00796e-06
 Reference value :  7.00876e-06
 Reference value :  7.01052e-06
 Reference value :  7.01149e-06
 Reference value :  7.01218e-06
 Reference value :  7.01368e-06
 Reference value :  7.01539e-06
 Reference value :  7.01643e-06
 Reference value :  7.01917e-06
 Reference value :  7.02125e-06
 Reference value :  7.02520e-06
 Reference value :  7.03090e-06
 Reference value :  7.04172e-06
 Reference value :  7.06010e-06
 Reference value :  7.11346e-06
 Reference value :  7.25010e-06
 Reference value :  7.25013e-06
 Reference value :  7.25020e-06
 Reference value :  7.25022e-06
 Reference value :  7.25032e-06
 Reference value :  7.25053e-06
 Reference value :  7.25069e-06
 Reference value :  7.25137e-06
 Reference value :  7.25223e-06
 Reference value :  7.25285e-06
 Reference value :  7.25405e-06
 Reference value :  7.25522e-06
 Reference value :  7.25619e-06
 Reference value :  7.25896e-06
 Reference value :  7.26559e-06
 Reference value :  7.29143e-06
 Reference value :  7.39350e-06
 Reference value :  7.50001e-06
 Reference value :  7.50007e-06
 Reference value :  7.50011e-06
 Reference value :  7.50016e-06
 Reference value :  7.50035e-06
 Reference value :  7.50090e-06
 Reference value :  7.50183e-06
 Reference value :  7.50281e-06
 Reference value :  7.50395e-06
 Reference value :  7.50536e-06
 Reference value :  7.50594e-06
 Reference value :  7.50747e-06
 Reference value :  7.50921e-06
 Reference value :  7.51024e-06
 Reference value :  7.51361e-06
 Reference value :  7.53223e-06
 Reference value :  7.58207e-06
 Reference value :  7.75010e-06
 Reference value :  7.75013e-06
 Reference value :  7.75020e-06
 Reference value :  7.75022e-06
 Reference value :  7.75032e-06
 Reference value :  7.75053e-06
 Reference value :  7.75096e-06
 Reference value :  7.75180e-06
 Reference value :  7.75290e-06
 Reference value :  7.75414e-06
 Reference value :  7.75472e-06
 Reference value :  7.75607e-06
 Reference value :  7.75857e-06
 Reference value :  7.76460e-06
 Reference value :  7.78746e-06
 Reference value :  7.87890e-06
 Reference value :  8.00001e-06
 Reference value :  8.00007e-06
 Reference value :  8.00011e-06
 Reference value :  8.00016e-06
 Reference value :  8.00035e-06
 Reference value :  8.00090e-06
 Reference value :  8.00183e-06
 Reference value :  8.00281e-06
 Reference value :  8.00395e-06
 Reference value :  8.00493e-06
 Reference value :  8.00619e-06
 Reference value :  8.00695e-06
 Reference value :  8.00862e-06
 Reference value :  8.01123e-06
 Reference value :  8.02615e-06
 Reference value :  8.12758e-06
 Reference value :  8.25010e-06
 Reference value :  8.25013e-06
 Reference value :  8.25020e-06
 Reference value :  8.25022e-06
 Reference value :  8.25032e-06
 Reference value :  8.25058e-06
 Reference value :  8.25119e-06
 Reference value :  8.25160e-06
 Reference value :  8.25255e-06
 Reference value :  8.25326e-06
 Reference value :  8.25475e-06
 Reference value :  8.25669e-06
 Reference value :  8.26007e-06
 Reference value :  8.26764e-06
 Reference value :  8.28591e-06
 Reference value :  8.33617e-06
 Reference value :  8.50000e-06
 Reference value :  8.50003e-06
 Reference value :  8.50010e-06
 Reference value :  8.50012e-06
 Reference value :  8.50022e-06
 Reference value :  8.50059e-06
 Reference value :  8.50134e-06
 Reference value :  8.50227e-06
 Reference value :  8.50333e-06
 Reference value :  8.50390e-06
 Reference value :  8.50435e-06
 Reference value :  8.50547e-06
 Reference value :  8.50734e-06
 Reference value :  8.51161e-06
 Reference value :  8.52145e-06
 Reference value :  8.52557e-06
 Reference value :  8.52851e-06
 Reference value :  8.53120e-06
 Reference value :  8.53333e-06
 Reference value :  8.53510e-06
 Reference value :  8.53890e-06
 Reference value :  8.54370e-06
 Reference value :  8.55172e-06
 Reference value :  8.56730e-06
 Reference value :  8.59784e-06
 Reference value :  8.65919e-06
 Reference value :  8.75011e-06
 Reference value :  8.75017e-06
 Reference value :  8.75021e-06
 Reference value :  8.75026e-06
 Reference value :  8.75045e-06
 Reference value :  8.75082e-06
 Reference value :  8.75172e-06
 Reference value :  8.75277e-06
 Reference value :  8.75331e-06
 Reference value :  8.75452e-06
 Reference value :  8.75604e-06
 Reference value :  8.75869e-06
 Reference value :  8.76487e-06
 Reference value :  8.78596e-06
 Reference value :  8.86559e-06
 Reference value :  9.00000e-06
No. of Data Rows : 1332
ngspice-44 done
