
Note: Compatibility modes selected: hs a


Circuit: ** sch_path: /home/ece/cace/sar-adc-using-sky130-pdk/runs/run_2025-09-12_21-09-11/parameters/dnl/run_1/sar_output_dnl.sch

option SCALE: Scale is set to 1e-06 for instance and model parameters
option SCALE: Scale is set to 1e-06 for instance and model parameters
option SCALE: Scale is set to 1e-06 for instance and model parameters
option SCALE: Scale is set to 1e-06 for instance and model parameters
Doing analysis at TEMP = 27.000000 and TNOM = 27.000000

Using KLU as Direct Linear Solver
Operating point simulation skipped by 'uic',
  now using transient initial conditions.
 Reference value :  1.00000e-12
 Reference value :  1.19600e-12
 Reference value :  6.30881e-12
 Reference value :  1.00000e-10
 Reference value :  2.48844e-10
 Reference value :  1.34280e-09
 Reference value :  4.20937e-09
 Reference value :  5.93439e-09
 Reference value :  7.94907e-09
 Reference value :  9.68231e-09
 Reference value :  1.37132e-08
 Reference value :  2.43800e-08
 Reference value :  3.31662e-08
 Reference value :  4.73001e-08
 Reference value :  1.11808e-07
 Reference value :  2.50110e-07
 Reference value :  2.50200e-07
 Reference value :  2.50252e-07
 Reference value :  2.50545e-07
 Reference value :  2.51448e-07
 Reference value :  2.51917e-07
 Reference value :  2.53072e-07
 Reference value :  2.54457e-07
 Reference value :  2.55816e-07
 Reference value :  2.57583e-07
 Reference value :  2.63248e-07
 Reference value :  2.84485e-07
 Reference value :  4.06136e-07
 Reference value :  5.00030e-07
 Reference value :  5.00108e-07
 Reference value :  5.00220e-07
 Reference value :  5.00864e-07
 Reference value :  5.01766e-07
 Reference value :  5.02702e-07
 Reference value :  5.04065e-07
 Reference value :  5.05649e-07
 Reference value :  5.08093e-07
 Reference value :  5.11293e-07
 Reference value :  5.14403e-07
 Reference value :  5.16018e-07
 Reference value :  5.19868e-07
 Reference value :  5.41468e-07
 Reference value :  7.50100e-07
 Reference value :  7.50208e-07
 Reference value :  7.50704e-07
 Reference value :  7.52047e-07
 Reference value :  7.54715e-07
 Reference value :  7.57088e-07
 Reference value :  7.60029e-07
 Reference value :  7.65787e-07
 Reference value :  7.99684e-07
 Reference value :  9.29405e-07
 Reference value :  1.00003e-06
 Reference value :  1.00011e-06
 Reference value :  1.00035e-06
 Reference value :  1.00130e-06
 Reference value :  1.00224e-06
 Reference value :  1.00341e-06
 Reference value :  1.00458e-06
 Reference value :  1.00583e-06
 Reference value :  1.00800e-06
 Reference value :  1.01144e-06
 Reference value :  1.01377e-06
 Reference value :  1.01611e-06
 Reference value :  1.01833e-06
 Reference value :  1.02078e-06
 Reference value :  1.02646e-06
 Reference value :  1.07153e-06
 Reference value :  1.24510e-06
 Reference value :  1.25017e-06
 Reference value :  1.25022e-06
 Reference value :  1.25045e-06
 Reference value :  1.25106e-06
 Reference value :  1.25203e-06
 Reference value :  1.25327e-06
 Reference value :  1.25464e-06
 Reference value :  1.25687e-06
 Reference value :  1.26171e-06
 Reference value :  1.29938e-06
 Reference value :  1.50000e-06
 Reference value :  1.50007e-06
 Reference value :  1.50012e-06
 Reference value :  1.50035e-06
 Reference value :  1.50130e-06
 Reference value :  1.50270e-06
 Reference value :  1.50405e-06
 Reference value :  1.50561e-06
 Reference value :  1.50754e-06
 Reference value :  1.50947e-06
 Reference value :  1.51158e-06
 Reference value :  1.51413e-06
 Reference value :  1.52875e-06
 Reference value :  1.56940e-06
 Reference value :  1.75010e-06
 Reference value :  1.75013e-06
 Reference value :  1.75021e-06
 Reference value :  1.75032e-06
 Reference value :  1.75070e-06
 Reference value :  1.75153e-06
 Reference value :  1.75202e-06
 Reference value :  1.75404e-06
 Reference value :  1.75533e-06
 Reference value :  1.75697e-06
 Reference value :  1.75996e-06
 Reference value :  1.76906e-06
 Reference value :  1.82107e-06
 Reference value :  2.00001e-06
 Reference value :  2.00010e-06
 Reference value :  2.00016e-06
 Reference value :  2.00052e-06
 Reference value :  2.00130e-06
 Reference value :  2.00224e-06
 Reference value :  2.00403e-06
 Reference value :  2.00457e-06
 Reference value :  2.00583e-06
 Reference value :  2.00644e-06
 Reference value :  2.00801e-06
 Reference value :  2.01145e-06
 Reference value :  2.01377e-06
 Reference value :  2.01612e-06
 Reference value :  2.01836e-06
 Reference value :  2.02086e-06
 Reference value :  2.02667e-06
 Reference value :  2.07639e-06
 Reference value :  2.25010e-06
 Reference value :  2.25017e-06
 Reference value :  2.25022e-06
 Reference value :  2.25070e-06
 Reference value :  2.25153e-06
 Reference value :  2.25256e-06
 Reference value :  2.25405e-06
 Reference value :  2.25535e-06
 Reference value :  2.25693e-06
 Reference value :  2.25960e-06
 Reference value :  2.28185e-06
 Reference value :  2.48843e-06
 Reference value :  2.50003e-06
 Reference value :  2.50010e-06
 Reference value :  2.50016e-06
 Reference value :  2.50035e-06
 Reference value :  2.50130e-06
 Reference value :  2.50221e-06
 Reference value :  2.50405e-06
 Reference value :  2.50561e-06
 Reference value :  2.50754e-06
 Reference value :  2.50947e-06
 Reference value :  2.51158e-06
 Reference value :  2.51412e-06
 Reference value :  2.52859e-06
 Reference value :  2.61915e-06
 Reference value :  2.75011e-06
 Reference value :  2.75020e-06
 Reference value :  2.75026e-06
 Reference value :  2.75070e-06
 Reference value :  2.75152e-06
 Reference value :  2.75254e-06
 Reference value :  2.75465e-06
 Reference value :  2.75696e-06
 Reference value :  2.75995e-06
 Reference value :  2.76547e-06
 Reference value :  2.79847e-06
 Reference value :  3.00000e-06
 Reference value :  3.00010e-06
 Reference value :  3.00022e-06
 Reference value :  3.00086e-06
 Reference value :  3.00176e-06
 Reference value :  3.00277e-06
 Reference value :  3.00403e-06
 Reference value :  3.00521e-06
 Reference value :  3.00644e-06
 Reference value :  3.00801e-06
 Reference value :  3.01047e-06
 Reference value :  3.01145e-06
 Reference value :  3.01256e-06
 Reference value :  3.01377e-06
 Reference value :  3.01614e-06
 Reference value :  3.01840e-06
 Reference value :  3.02096e-06
 Reference value :  3.03176e-06
 Reference value :  3.12042e-06
 Reference value :  3.20106e-06
 Reference value :  3.25011e-06
 Reference value :  3.25017e-06
 Reference value :  3.25021e-06
 Reference value :  3.25032e-06
 Reference value :  3.25070e-06
 Reference value :  3.25153e-06
 Reference value :  3.25203e-06
 Reference value :  3.25328e-06
 Reference value :  3.25405e-06
 Reference value :  3.25466e-06
 Reference value :  3.25534e-06
 Reference value :  3.25600e-06
 Reference value :  3.25691e-06
 Reference value :  3.25957e-06
 Reference value :  3.27103e-06
 Reference value :  3.33159e-06
 Reference value :  3.49598e-06
 Reference value :  3.50001e-06
 Reference value :  3.50007e-06
 Reference value :  3.50012e-06
 Reference value :  3.50035e-06
 Reference value :  3.50086e-06
 Reference value :  3.50130e-06
 Reference value :  3.50221e-06
 Reference value :  3.50485e-06
 Reference value :  3.50674e-06
 Reference value :  3.50754e-06
 Reference value :  3.50947e-06
 Reference value :  3.51277e-06
 Reference value :  3.52849e-06
 Reference value :  3.75010e-06
 Reference value :  3.75017e-06
 Reference value :  3.75026e-06
 Reference value :  3.75070e-06
 Reference value :  3.75202e-06
 Reference value :  3.75403e-06
 Reference value :  3.75464e-06
 Reference value :  3.75695e-06
 Reference value :  3.75995e-06
 Reference value :  3.76902e-06
 Reference value :  3.82107e-06
 Reference value :  4.00001e-06
 Reference value :  4.00010e-06
 Reference value :  4.00012e-06
 Reference value :  4.00035e-06
 Reference value :  4.00086e-06
 Reference value :  4.00130e-06
 Reference value :  4.00224e-06
 Reference value :  4.00403e-06
 Reference value :  4.00521e-06
 Reference value :  4.00644e-06
 Reference value :  4.01047e-06
 Reference value :  4.01256e-06
 Reference value :  4.01509e-06
 Reference value :  4.01728e-06
 Reference value :  4.01964e-06
 Reference value :  4.02463e-06
 Reference value :  4.07019e-06
 Reference value :  4.09145e-06
 Reference value :  4.14754e-06
 Reference value :  4.25017e-06
 Reference value :  4.25045e-06
 Reference value :  4.25202e-06
 Reference value :  4.25465e-06
 Reference value :  4.25686e-06
 Reference value :  4.28129e-06
 Reference value :  4.50003e-06
 Reference value :  4.50011e-06
 Reference value :  4.50035e-06
 Reference value :  4.50130e-06
 Reference value :  4.50224e-06
 Reference value :  4.50399e-06
 Reference value :  4.50532e-06
 Reference value :  4.50826e-06
 Reference value :  4.51019e-06
 Reference value :  4.51237e-06
 Reference value :  4.53092e-06
 Reference value :  4.75010e-06
 Reference value :  4.75017e-06
 Reference value :  4.75026e-06
 Reference value :  4.75070e-06
 Reference value :  4.75153e-06
 Reference value :  4.75203e-06
 Reference value :  4.75328e-06
 Reference value :  4.75469e-06
 Reference value :  4.75706e-06
 Reference value :  4.76198e-06
 Reference value :  4.78225e-06
 Reference value :  4.88614e-06
 Reference value :  5.00003e-06
 Reference value :  5.00011e-06
 Reference value :  5.00035e-06
 Reference value :  5.00086e-06
 Reference value :  5.00130e-06
 Reference value :  5.00224e-06
 Reference value :  5.00403e-06
 Reference value :  5.00458e-06
 Reference value :  5.00582e-06
 Reference value :  5.00643e-06
 Reference value :  5.00801e-06
 Reference value :  5.01256e-06
 Reference value :  5.01402e-06
 Reference value :  5.01670e-06
 Reference value :  5.01908e-06
 Reference value :  5.02343e-06
 Reference value :  5.04278e-06
 Reference value :  5.08715e-06
 Reference value :  5.10163e-06
 Reference value :  5.12161e-06
 Reference value :  5.17034e-06
 Reference value :  5.25011e-06
 Reference value :  5.25021e-06
 Reference value :  5.25045e-06
 Reference value :  5.25152e-06
 Reference value :  5.25254e-06
 Reference value :  5.25401e-06
 Reference value :  5.25532e-06
 Reference value :  5.25692e-06
 Reference value :  5.26185e-06
 Reference value :  5.28172e-06
 Reference value :  5.45795e-06
 Reference value :  5.50007e-06
 Reference value :  5.50016e-06
 Reference value :  5.50086e-06
 Reference value :  5.50221e-06
 Reference value :  5.50405e-06
 Reference value :  5.50560e-06
 Reference value :  5.50753e-06
 Reference value :  5.50946e-06
 Reference value :  5.51277e-06
 Reference value :  5.52078e-06
 Reference value :  5.61622e-06
 Reference value :  5.75013e-06
 Reference value :  5.75021e-06
 Reference value :  5.75045e-06
 Reference value :  5.75105e-06
 Reference value :  5.75202e-06
 Reference value :  5.75403e-06
 Reference value :  5.75532e-06
 Reference value :  5.75695e-06
 Reference value :  5.75883e-06
 Reference value :  5.76124e-06
 Reference value :  5.76905e-06
 Reference value :  5.79874e-06
 Reference value :  5.91739e-06
 Reference value :  6.00003e-06
 Reference value :  6.00010e-06
 Reference value :  6.00012e-06
 Reference value :  6.00035e-06
 Reference value :  6.00130e-06
 Reference value :  6.00276e-06
 Reference value :  6.00457e-06
 Reference value :  6.00583e-06
 Reference value :  6.00712e-06
 Reference value :  6.00902e-06
 Reference value :  6.01146e-06
 Reference value :  6.01378e-06
 Reference value :  6.01623e-06
 Reference value :  6.01741e-06
 Reference value :  6.01977e-06
 Reference value :  6.02510e-06
 Reference value :  6.03836e-06
 Reference value :  6.06950e-06
 Reference value :  6.21328e-06
 Reference value :  6.25013e-06
 Reference value :  6.25021e-06
 Reference value :  6.25045e-06
 Reference value :  6.25105e-06
 Reference value :  6.25202e-06
 Reference value :  6.25326e-06
 Reference value :  6.25463e-06
 Reference value :  6.25682e-06
 Reference value :  6.28102e-06
 Reference value :  6.50001e-06
 Reference value :  6.50011e-06
 Reference value :  6.50022e-06
 Reference value :  6.50086e-06
 Reference value :  6.50177e-06
 Reference value :  6.50270e-06
 Reference value :  6.50486e-06
 Reference value :  6.50754e-06
 Reference value :  6.50947e-06
 Reference value :  6.51278e-06
 Reference value :  6.54203e-06
 Reference value :  6.75010e-06
 Reference value :  6.75020e-06
 Reference value :  6.75045e-06
 Reference value :  6.75152e-06
 Reference value :  6.75254e-06
 Reference value :  6.75464e-06
 Reference value :  6.75694e-06
 Reference value :  6.76122e-06
 Reference value :  6.82105e-06
 Reference value :  7.00000e-06
 Reference value :  7.00010e-06
 Reference value :  7.00035e-06
 Reference value :  7.00130e-06
 Reference value :  7.00224e-06
 Reference value :  7.00403e-06
 Reference value :  7.00522e-06
 Reference value :  7.00644e-06
 Reference value :  7.00900e-06
 Reference value :  7.01145e-06
 Reference value :  7.01378e-06
 Reference value :  7.01625e-06
 Reference value :  7.01858e-06
 Reference value :  7.02276e-06
 Reference value :  7.03453e-06
 Reference value :  7.11905e-06
 Reference value :  7.25011e-06
 Reference value :  7.25020e-06
 Reference value :  7.25032e-06
 Reference value :  7.25105e-06
 Reference value :  7.25202e-06
 Reference value :  7.25326e-06
 Reference value :  7.25464e-06
 Reference value :  7.25599e-06
 Reference value :  7.25776e-06
 Reference value :  7.26501e-06
 Reference value :  7.29835e-06
 Reference value :  7.50000e-06
 Reference value :  7.50007e-06
 Reference value :  7.50012e-06
 Reference value :  7.50022e-06
 Reference value :  7.50086e-06
 Reference value :  7.50176e-06
 Reference value :  7.50277e-06
 Reference value :  7.50399e-06
 Reference value :  7.50532e-06
 Reference value :  7.50730e-06
 Reference value :  7.51019e-06
 Reference value :  7.51616e-06
 Reference value :  7.55029e-06
 Reference value :  7.75011e-06
 Reference value :  7.75021e-06
 Reference value :  7.75070e-06
 Reference value :  7.75203e-06
 Reference value :  7.75468e-06
 Reference value :  7.75791e-06
 Reference value :  7.78208e-06
 Reference value :  7.97846e-06
 Reference value :  8.00003e-06
 Reference value :  8.00011e-06
 Reference value :  8.00022e-06
 Reference value :  8.00086e-06
 Reference value :  8.00176e-06
 Reference value :  8.00277e-06
 Reference value :  8.00458e-06
 Reference value :  8.00582e-06
 Reference value :  8.00711e-06
 Reference value :  8.00901e-06
 Reference value :  8.01112e-06
 Reference value :  8.01787e-06
 Reference value :  8.08519e-06
 Reference value :  8.25011e-06
 Reference value :  8.25020e-06
 Reference value :  8.25032e-06
 Reference value :  8.25070e-06
 Reference value :  8.25152e-06
 Reference value :  8.25254e-06
 Reference value :  8.25421e-06
 Reference value :  8.25723e-06
 Reference value :  8.26282e-06
 Reference value :  8.29390e-06
 Reference value :  8.50000e-06
 Reference value :  8.50000e-06
 Reference value :  8.50000e-06
 Reference value :  8.50001e-06
 Reference value :  8.50004e-06
 Reference value :  8.50010e-06
 Reference value :  8.50012e-06
 Reference value :  8.50018e-06
 Reference value :  8.50045e-06
 Reference value :  8.50128e-06
 Reference value :  8.50245e-06
 Reference value :  8.50369e-06
 Reference value :  8.50512e-06
 Reference value :  8.50570e-06
 Reference value :  8.50706e-06
 Reference value :  8.51132e-06
 Reference value :  8.52295e-06
 Reference value :  8.52740e-06
 Reference value :  8.53015e-06
 Reference value :  8.53458e-06
 Reference value :  8.53791e-06
 Reference value :  8.54088e-06
 Reference value :  8.54363e-06
 Reference value :  8.54666e-06
 Reference value :  8.55080e-06
 Reference value :  8.56479e-06
 Reference value :  8.57875e-06
 Reference value :  8.58979e-06
 Reference value :  8.59720e-06
 Reference value :  8.61440e-06
 Reference value :  8.66498e-06
 Reference value :  8.75013e-06
 Reference value :  8.75021e-06
 Reference value :  8.75032e-06
 Reference value :  8.75105e-06
 Reference value :  8.75203e-06
 Reference value :  8.75328e-06
 Reference value :  8.75467e-06
 Reference value :  8.75605e-06
 Reference value :  8.75993e-06
 Reference value :  8.77291e-06
 Reference value :  8.83407e-06
 Reference value :  9.00000e-06
 Reference value :  9.00003e-06
 Reference value :  9.00011e-06
 Reference value :  9.00022e-06
 Reference value :  9.00086e-06
 Reference value :  9.00177e-06
 Reference value :  9.00332e-06
 Reference value :  9.00560e-06
 Reference value :  9.00996e-06
 Reference value :  9.01282e-06
 Reference value :  9.01596e-06
 Reference value :  9.02564e-06
 Reference value :  9.16442e-06
 Reference value :  9.25020e-06
 Reference value :  9.25045e-06
 Reference value :  9.25203e-06
 Reference value :  9.25404e-06
 Reference value :  9.25607e-06
 Reference value :  9.25884e-06
 Reference value :  9.26534e-06
 Reference value :  9.29287e-06
 Reference value :  9.50000e-06
 Reference value :  9.50007e-06
 Reference value :  9.50022e-06
 Reference value :  9.50086e-06
 Reference value :  9.50224e-06
 Reference value :  9.50457e-06
 Reference value :  9.50583e-06
 Reference value :  9.50711e-06
 Reference value :  9.51046e-06
 Reference value :  9.51145e-06
 Reference value :  9.51377e-06
 Reference value :  9.51607e-06
 Reference value :  9.51827e-06
 Reference value :  9.52399e-06
 Reference value :  9.54636e-06
 Reference value :  9.72619e-06
 Reference value :  9.75017e-06
 Reference value :  9.75032e-06
 Reference value :  9.75105e-06
 Reference value :  9.75201e-06
 Reference value :  9.75403e-06
 Reference value :  9.75529e-06
 Reference value :  9.75682e-06
 Reference value :  9.76490e-06
 Reference value :  9.83022e-06
 Reference value :  1.00000e-05
 Reference value :  1.00001e-05
 Reference value :  1.00003e-05
 Reference value :  1.00013e-05
 Reference value :  1.00022e-05
 Reference value :  1.00041e-05
 Reference value :  1.00067e-05
 Reference value :  1.00084e-05
 Reference value :  1.00116e-05
 Reference value :  1.00208e-05
 Reference value :  1.02501e-05
 Reference value :  1.02502e-05
 Reference value :  1.02503e-05
 Reference value :  1.02511e-05
 Reference value :  1.02520e-05
 Reference value :  1.02540e-05
 Reference value :  1.02560e-05
 Reference value :  1.02588e-05
 Reference value :  1.02654e-05
 Reference value :  1.03210e-05
 Reference value :  1.05000e-05
 Reference value :  1.05001e-05
 Reference value :  1.05003e-05
 Reference value :  1.05013e-05
 Reference value :  1.05022e-05
 Reference value :  1.05040e-05
 Reference value :  1.05046e-05
 Reference value :  1.05058e-05
 Reference value :  1.05071e-05
 Reference value :  1.05105e-05
 Reference value :  1.05115e-05
 Reference value :  1.05138e-05
 Reference value :  1.05161e-05
 Reference value :  1.05183e-05
 Reference value :  1.05208e-05
 Reference value :  1.05265e-05
 Reference value :  1.05712e-05
 Reference value :  1.07381e-05
 Reference value :  1.07502e-05
 Reference value :  1.07502e-05
 Reference value :  1.07504e-05
 Reference value :  1.07515e-05
 Reference value :  1.07533e-05
 Reference value :  1.07553e-05
 Reference value :  1.07594e-05
 Reference value :  1.08869e-05
 Reference value :  1.10001e-05
 Reference value :  1.10005e-05
 Reference value :  1.10022e-05
 Reference value :  1.10049e-05
 Reference value :  1.10075e-05
 Reference value :  1.10095e-05
 Reference value :  1.10128e-05
 Reference value :  1.10283e-05
 Reference value :  1.12501e-05
 Reference value :  1.12502e-05
 Reference value :  1.12503e-05
 Reference value :  1.12511e-05
 Reference value :  1.12520e-05
 Reference value :  1.12533e-05
 Reference value :  1.12546e-05
 Reference value :  1.12560e-05
 Reference value :  1.12578e-05
 Reference value :  1.12599e-05
 Reference value :  1.12690e-05
 Reference value :  1.13210e-05
 Reference value :  1.15000e-05
 Reference value :  1.15001e-05
 Reference value :  1.15002e-05
 Reference value :  1.15009e-05
 Reference value :  1.15013e-05
 Reference value :  1.15022e-05
 Reference value :  1.15046e-05
 Reference value :  1.15064e-05
 Reference value :  1.15105e-05
 Reference value :  1.15126e-05
 Reference value :  1.15151e-05
 Reference value :  1.15184e-05
 Reference value :  1.15222e-05
 Reference value :  1.15760e-05
 Reference value :  1.17157e-05
 Reference value :  1.17502e-05
 Reference value :  1.17503e-05
 Reference value :  1.17511e-05
 Reference value :  1.17526e-05
 Reference value :  1.17546e-05
 Reference value :  1.17569e-05
 Reference value :  1.17651e-05
 Reference value :  1.17985e-05
 Reference value :  1.20000e-05
 Reference value :  1.20001e-05
 Reference value :  1.20002e-05
 Reference value :  1.20005e-05
 Reference value :  1.20013e-05
 Reference value :  1.20022e-05
 Reference value :  1.20033e-05
 Reference value :  1.20049e-05
 Reference value :  1.20067e-05
 Reference value :  1.20075e-05
 Reference value :  1.20095e-05
 Reference value :  1.20116e-05
 Reference value :  1.20168e-05
 Reference value :  1.20661e-05
 Reference value :  1.22501e-05
 Reference value :  1.22502e-05
 Reference value :  1.22504e-05
 Reference value :  1.22511e-05
 Reference value :  1.22520e-05
 Reference value :  1.22540e-05
 Reference value :  1.22553e-05
 Reference value :  1.22569e-05
 Reference value :  1.22588e-05
 Reference value :  1.22632e-05
 Reference value :  1.22751e-05
 Reference value :  1.23211e-05
 Reference value :  1.25000e-05
 Reference value :  1.25001e-05
 Reference value :  1.25001e-05
 Reference value :  1.25003e-05
 Reference value :  1.25013e-05
 Reference value :  1.25022e-05
 Reference value :  1.25034e-05
 Reference value :  1.25046e-05
 Reference value :  1.25058e-05
 Reference value :  1.25064e-05
 Reference value :  1.25080e-05
 Reference value :  1.25105e-05
 Reference value :  1.25115e-05
 Reference value :  1.25126e-05
 Reference value :  1.25138e-05
 Reference value :  1.25162e-05
 Reference value :  1.25185e-05
 Reference value :  1.25211e-05
 Reference value :  1.25247e-05
 Reference value :  1.25547e-05
 Reference value :  1.25689e-05
 Reference value :  1.25820e-05
 Reference value :  1.25888e-05
 Reference value :  1.26020e-05
 Reference value :  1.26630e-05
 Reference value :  1.27501e-05
 Reference value :  1.27502e-05
 Reference value :  1.27503e-05
 Reference value :  1.27507e-05
 Reference value :  1.27515e-05
 Reference value :  1.27526e-05
 Reference value :  1.27541e-05
 Reference value :  1.27553e-05
 Reference value :  1.27569e-05
 Reference value :  1.27618e-05
 Reference value :  1.27987e-05
 Reference value :  1.30000e-05
 Reference value :  1.30001e-05
 Reference value :  1.30002e-05
 Reference value :  1.30009e-05
 Reference value :  1.30018e-05
 Reference value :  1.30028e-05
 Reference value :  1.30046e-05
 Reference value :  1.30063e-05
 Reference value :  1.30083e-05
 Reference value :  1.30102e-05
 Reference value :  1.30136e-05
 Reference value :  1.30503e-05
 Reference value :  1.32501e-05
 Reference value :  1.32502e-05
 Reference value :  1.32503e-05
 Reference value :  1.32507e-05
 Reference value :  1.32520e-05
 Reference value :  1.32541e-05
 Reference value :  1.32554e-05
 Reference value :  1.32579e-05
 Reference value :  1.32655e-05
 Reference value :  1.33310e-05
 Reference value :  1.35000e-05
 Reference value :  1.35001e-05
 Reference value :  1.35003e-05
 Reference value :  1.35013e-05
 Reference value :  1.35022e-05
 Reference value :  1.35040e-05
 Reference value :  1.35052e-05
 Reference value :  1.35064e-05
 Reference value :  1.35106e-05
 Reference value :  1.35140e-05
 Reference value :  1.35167e-05
 Reference value :  1.35191e-05
 Reference value :  1.35234e-05
 Reference value :  1.35578e-05
 Reference value :  1.35915e-05
 Reference value :  1.36222e-05
 Reference value :  1.36470e-05
 Reference value :  1.36954e-05
 Reference value :  1.37501e-05
 Reference value :  1.37502e-05
 Reference value :  1.37503e-05
 Reference value :  1.37511e-05
 Reference value :  1.37520e-05
 Reference value :  1.37533e-05
 Reference value :  1.37547e-05
 Reference value :  1.37571e-05
 Reference value :  1.37623e-05
 Reference value :  1.38343e-05
 Reference value :  1.40000e-05
 Reference value :  1.40001e-05
 Reference value :  1.40002e-05
 Reference value :  1.40009e-05
 Reference value :  1.40018e-05
 Reference value :  1.40027e-05
 Reference value :  1.40049e-05
 Reference value :  1.40075e-05
 Reference value :  1.40095e-05
 Reference value :  1.40128e-05
 Reference value :  1.40283e-05
 Reference value :  1.42120e-05
 Reference value :  1.42502e-05
 Reference value :  1.42503e-05
 Reference value :  1.42511e-05
 Reference value :  1.42525e-05
 Reference value :  1.42546e-05
 Reference value :  1.42569e-05
 Reference value :  1.42599e-05
 Reference value :  1.42690e-05
 Reference value :  1.43216e-05
 Reference value :  1.45000e-05
 Reference value :  1.45001e-05
 Reference value :  1.45002e-05
 Reference value :  1.45009e-05
 Reference value :  1.45018e-05
 Reference value :  1.45028e-05
 Reference value :  1.45046e-05
 Reference value :  1.45058e-05
 Reference value :  1.45071e-05
 Reference value :  1.45090e-05
 Reference value :  1.45115e-05
 Reference value :  1.45138e-05
 Reference value :  1.45162e-05
 Reference value :  1.45185e-05
 Reference value :  1.45213e-05
 Reference value :  1.45282e-05
 Reference value :  1.45384e-05
 Reference value :  1.45479e-05
 Reference value :  1.45952e-05
 Reference value :  1.46781e-05
 Reference value :  1.47210e-05
 Reference value :  1.47501e-05
 Reference value :  1.47502e-05
 Reference value :  1.47503e-05
 Reference value :  1.47511e-05
 Reference value :  1.47526e-05
 Reference value :  1.47547e-05
 Reference value :  1.47569e-05
 Reference value :  1.47653e-05
 Reference value :  1.47992e-05
 Reference value :  1.48362e-05
 Reference value :  1.49336e-05
 Reference value :  1.50000e-05
 Reference value :  1.50001e-05
 Reference value :  1.50003e-05
 Reference value :  1.50009e-05
 Reference value :  1.50013e-05
 Reference value :  1.50022e-05
 Reference value :  1.50034e-05
 Reference value :  1.50046e-05
 Reference value :  1.50063e-05
 Reference value :  1.50083e-05
 Reference value :  1.50102e-05
 Reference value :  1.50124e-05
 Reference value :  1.50212e-05
 Reference value :  1.50890e-05
 Reference value :  1.52501e-05
 Reference value :  1.52502e-05
 Reference value :  1.52503e-05
 Reference value :  1.52504e-05
 Reference value :  1.52515e-05
 Reference value :  1.52520e-05
 Reference value :  1.52533e-05
 Reference value :  1.52547e-05
 Reference value :  1.52570e-05
 Reference value :  1.52655e-05
 Reference value :  1.53310e-05
 Reference value :  1.55004e-05
 Reference value :  1.55016e-05
 Reference value :  1.55024e-05
 Reference value :  1.55035e-05
 Reference value :  1.55048e-05
 Reference value :  1.55059e-05
 Reference value :  1.55072e-05
 Reference value :  1.55092e-05
 Reference value :  1.55127e-05
 Reference value :  1.55142e-05
 Reference value :  1.55154e-05
 Reference value :  1.55179e-05
 Reference value :  1.55201e-05
 Reference value :  1.55232e-05
 Reference value :  1.55339e-05
 Reference value :  1.55741e-05
 Reference value :  1.56076e-05
 Reference value :  1.56423e-05
 Reference value :  1.56886e-05
 Reference value :  1.57473e-05
 Reference value :  1.57501e-05
 Reference value :  1.57502e-05
 Reference value :  1.57502e-05
 Reference value :  1.57503e-05
 Reference value :  1.57507e-05
 Reference value :  1.57515e-05
 Reference value :  1.57526e-05
 Reference value :  1.57540e-05
 Reference value :  1.57547e-05
 Reference value :  1.57560e-05
 Reference value :  1.57570e-05
 Reference value :  1.57598e-05
 Reference value :  1.57721e-05
 Reference value :  1.58319e-05
 Reference value :  1.60000e-05
 Reference value :  1.60000e-05
 Reference value :  1.60001e-05
 Reference value :  1.60002e-05
 Reference value :  1.60005e-05
 Reference value :  1.60013e-05
 Reference value :  1.60022e-05
 Reference value :  1.60041e-05
 Reference value :  1.60056e-05
 Reference value :  1.60075e-05
 Reference value :  1.60095e-05
 Reference value :  1.60116e-05
 Reference value :  1.60141e-05
 Reference value :  1.60283e-05
 Reference value :  1.61152e-05
 Reference value :  1.62501e-05
 Reference value :  1.62502e-05
 Reference value :  1.62503e-05
 Reference value :  1.62510e-05
 Reference value :  1.62520e-05
 Reference value :  1.62540e-05
 Reference value :  1.62553e-05
 Reference value :  1.62570e-05
 Reference value :  1.62588e-05
 Reference value :  1.62632e-05
 Reference value :  1.62752e-05
 Reference value :  1.63221e-05
 Reference value :  1.65000e-05
 Reference value :  1.65001e-05
 Reference value :  1.65002e-05
 Reference value :  1.65005e-05
 Reference value :  1.65013e-05
 Reference value :  1.65022e-05
 Reference value :  1.65040e-05
 Reference value :  1.65046e-05
 Reference value :  1.65058e-05
 Reference value :  1.65071e-05
 Reference value :  1.65090e-05
 Reference value :  1.65108e-05
 Reference value :  1.65139e-05
 Reference value :  1.65182e-05
 Reference value :  1.65419e-05
 Reference value :  1.66394e-05
 Reference value :  1.67501e-05
 Reference value :  1.67502e-05
 Reference value :  1.67503e-05
 Reference value :  1.67507e-05
 Reference value :  1.67515e-05
 Reference value :  1.67526e-05
 Reference value :  1.67543e-05
 Reference value :  1.67561e-05
 Reference value :  1.67586e-05
 Reference value :  1.67723e-05
 Reference value :  1.68146e-05
 Reference value :  1.68412e-05
 Reference value :  1.69282e-05
 Reference value :  1.70000e-05
 Reference value :  1.70000e-05
 Reference value :  1.70000e-05
 Reference value :  1.70000e-05
 Reference value :  1.70001e-05
 Reference value :  1.70001e-05
 Reference value :  1.70002e-05
 Reference value :  1.70004e-05
 Reference value :  1.70013e-05
 Reference value :  1.70024e-05
 Reference value :  1.70037e-05
 Reference value :  1.70051e-05
 Reference value :  1.70057e-05
 Reference value :  1.70071e-05
 Reference value :  1.70113e-05
 Reference value :  1.70221e-05
 Reference value :  1.70288e-05
 Reference value :  1.70337e-05
 Reference value :  1.70374e-05
 Reference value :  1.70406e-05
 Reference value :  1.70448e-05
 Reference value :  1.70512e-05
 Reference value :  1.70552e-05
 Reference value :  1.70599e-05
 Reference value :  1.70683e-05
 Reference value :  1.70747e-05
 Reference value :  1.70799e-05
 Reference value :  1.70926e-05
 Reference value :  1.71334e-05
 Reference value :  1.72501e-05
 Reference value :  1.72502e-05
 Reference value :  1.72503e-05
 Reference value :  1.72507e-05
 Reference value :  1.72520e-05
 Reference value :  1.72540e-05
 Reference value :  1.72554e-05
 Reference value :  1.72582e-05
 Reference value :  1.72660e-05
 Reference value :  1.73029e-05
 Reference value :  1.74827e-05
 Reference value :  1.75000e-05
 Reference value :  1.75001e-05
 Reference value :  1.75001e-05
 Reference value :  1.75003e-05
 Reference value :  1.75009e-05
 Reference value :  1.75013e-05
 Reference value :  1.75022e-05
 Reference value :  1.75033e-05
 Reference value :  1.75048e-05
 Reference value :  1.75067e-05
 Reference value :  1.75100e-05
 Reference value :  1.75128e-05
 Reference value :  1.75144e-05
 Reference value :  1.75160e-05
 Reference value :  1.75197e-05
 Reference value :  1.75412e-05
 Reference value :  1.77501e-05
 Reference value :  1.77502e-05
 Reference value :  1.77503e-05
 Reference value :  1.77507e-05
 Reference value :  1.77520e-05
 Reference value :  1.77533e-05
 Reference value :  1.77547e-05
 Reference value :  1.77570e-05
 Reference value :  1.77599e-05
 Reference value :  1.77651e-05
 Reference value :  1.77896e-05
 Reference value :  1.78995e-05
 Reference value :  1.80006e-05
 Reference value :  1.80024e-05
 Reference value :  1.80036e-05
 Reference value :  1.80049e-05
 Reference value :  1.80060e-05
 Reference value :  1.80081e-05
 Reference value :  1.80106e-05
 Reference value :  1.80116e-05
 Reference value :  1.80139e-05
 Reference value :  1.80161e-05
 Reference value :  1.80185e-05
 Reference value :  1.80211e-05
 Reference value :  1.80277e-05
 Reference value :  1.80924e-05
 Reference value :  1.82501e-05
 Reference value :  1.82502e-05
 Reference value :  1.82507e-05
 Reference value :  1.82520e-05
 Reference value :  1.82540e-05
 Reference value :  1.82553e-05
 Reference value :  1.82577e-05
 Reference value :  1.82701e-05
 Reference value :  1.85000e-05
 Reference value :  1.85001e-05
 Reference value :  1.85003e-05
 Reference value :  1.85013e-05
 Reference value :  1.85027e-05
 Reference value :  1.85056e-05
 Reference value :  1.85075e-05
 Reference value :  1.85106e-05
 Reference value :  1.85128e-05
 Reference value :  1.85283e-05
 Reference value :  1.87117e-05
 Reference value :  1.87501e-05
 Reference value :  1.87502e-05
 Reference value :  1.87503e-05
 Reference value :  1.87511e-05
 Reference value :  1.87520e-05
 Reference value :  1.87533e-05
 Reference value :  1.87546e-05
 Reference value :  1.87569e-05
 Reference value :  1.87588e-05
 Reference value :  1.87632e-05
 Reference value :  1.87751e-05
 Reference value :  1.88578e-05
 Reference value :  1.90000e-05
 Reference value :  1.90001e-05
 Reference value :  1.90002e-05
 Reference value :  1.90003e-05
 Reference value :  1.90013e-05
 Reference value :  1.90022e-05
 Reference value :  1.90034e-05
 Reference value :  1.90046e-05
 Reference value :  1.90058e-05
 Reference value :  1.90064e-05
 Reference value :  1.90080e-05
 Reference value :  1.90105e-05
 Reference value :  1.90115e-05
 Reference value :  1.90138e-05
 Reference value :  1.90161e-05
 Reference value :  1.90172e-05
 Reference value :  1.90183e-05
 Reference value :  1.90208e-05
 Reference value :  1.90243e-05
 Reference value :  1.90308e-05
 Reference value :  1.90715e-05
 Reference value :  1.91534e-05
 Reference value :  1.92501e-05
 Reference value :  1.92501e-05
 Reference value :  1.92502e-05
 Reference value :  1.92503e-05
 Reference value :  1.92507e-05
 Reference value :  1.92515e-05
 Reference value :  1.92520e-05
 Reference value :  1.92533e-05
 Reference value :  1.92546e-05
 Reference value :  1.92559e-05
 Reference value :  1.92568e-05
 Reference value :  1.92594e-05
 Reference value :  1.92703e-05
 Reference value :  1.93303e-05
 Reference value :  1.95000e-05
 Reference value :  1.95003e-05
 Reference value :  1.95011e-05
 Reference value :  1.95017e-05
 Reference value :  1.95027e-05
 Reference value :  1.95040e-05
 Reference value :  1.95056e-05
 Reference value :  1.95076e-05
 Reference value :  1.95096e-05
 Reference value :  1.95118e-05
 Reference value :  1.95146e-05
 Reference value :  1.95270e-05
 Reference value :  1.96138e-05
 Reference value :  1.97501e-05
 Reference value :  1.97502e-05
 Reference value :  1.97503e-05
 Reference value :  1.97510e-05
 Reference value :  1.97520e-05
 Reference value :  1.97532e-05
 Reference value :  1.97546e-05
 Reference value :  1.97560e-05
 Reference value :  1.97578e-05
 Reference value :  1.97599e-05
 Reference value :  1.97653e-05
 Reference value :  1.97836e-05
 Reference value :  1.98588e-05
 Reference value :  2.00000e-05
 Reference value :  2.00001e-05
 Reference value :  2.00002e-05
 Reference value :  2.00003e-05
 Reference value :  2.00009e-05
 Reference value :  2.00018e-05
 Reference value :  2.00022e-05
 Reference value :  2.00034e-05
 Reference value :  2.00046e-05
 Reference value :  2.00058e-05
 Reference value :  2.00071e-05
 Reference value :  2.00105e-05
 Reference value :  2.00115e-05
 Reference value :  2.00138e-05
 Reference value :  2.00161e-05
 Reference value :  2.00184e-05
 Reference value :  2.00209e-05
 Reference value :  2.00268e-05
 Reference value :  2.00522e-05
 Reference value :  2.01497e-05
 Reference value :  2.02501e-05
 Reference value :  2.02502e-05
 Reference value :  2.02503e-05
 Reference value :  2.02515e-05
 Reference value :  2.02526e-05
 Reference value :  2.02540e-05
 Reference value :  2.02553e-05
 Reference value :  2.02569e-05
 Reference value :  2.02617e-05
 Reference value :  2.02985e-05
 Reference value :  2.05001e-05
 Reference value :  2.05005e-05
 Reference value :  2.05011e-05
 Reference value :  2.05020e-05
 Reference value :  2.05030e-05
 Reference value :  2.05043e-05
 Reference value :  2.05060e-05
 Reference value :  2.05076e-05
 Reference value :  2.05095e-05
 Reference value :  2.05144e-05
 Reference value :  2.05387e-05
 Reference value :  2.07501e-05
 Reference value :  2.07502e-05
 Reference value :  2.07504e-05
 Reference value :  2.07520e-05
 Reference value :  2.07541e-05
 Reference value :  2.07561e-05
 Reference value :  2.07588e-05
 Reference value :  2.07654e-05
 Reference value :  2.08189e-05
 Reference value :  2.10000e-05
 Reference value :  2.10001e-05
 Reference value :  2.10003e-05
 Reference value :  2.10013e-05
 Reference value :  2.10022e-05
 Reference value :  2.10040e-05
 Reference value :  2.10052e-05
 Reference value :  2.10064e-05
 Reference value :  2.10105e-05
 Reference value :  2.10126e-05
 Reference value :  2.10151e-05
 Reference value :  2.10173e-05
 Reference value :  2.10198e-05
 Reference value :  2.10226e-05
 Reference value :  2.10334e-05
 Reference value :  2.10688e-05
 Reference value :  2.10882e-05
 Reference value :  2.11110e-05
 Reference value :  2.12126e-05
 Reference value :  2.12501e-05
 Reference value :  2.12502e-05
 Reference value :  2.12504e-05
 Reference value :  2.12515e-05
 Reference value :  2.12525e-05
 Reference value :  2.12540e-05
 Reference value :  2.12553e-05
 Reference value :  2.12568e-05
 Reference value :  2.12617e-05
 Reference value :  2.12811e-05
 Reference value :  2.14985e-05
 Reference value :  2.15001e-05
 Reference value :  2.15002e-05
 Reference value :  2.15005e-05
 Reference value :  2.15013e-05
 Reference value :  2.15022e-05
 Reference value :  2.15040e-05
 Reference value :  2.15053e-05
 Reference value :  2.15083e-05
 Reference value :  2.15112e-05
 Reference value :  2.15212e-05
 Reference value :  2.17501e-05
 Reference value :  2.17502e-05
 Reference value :  2.17507e-05
 Reference value :  2.17520e-05
 Reference value :  2.17541e-05
 Reference value :  2.17561e-05
 Reference value :  2.17620e-05
 Reference value :  2.18310e-05
 Reference value :  2.20004e-05
 Reference value :  2.20016e-05
 Reference value :  2.20029e-05
 Reference value :  2.20041e-05
 Reference value :  2.20053e-05
 Reference value :  2.20065e-05
 Reference value :  2.20108e-05
 Reference value :  2.20141e-05
 Reference value :  2.20178e-05
 Reference value :  2.20201e-05
 Reference value :  2.20250e-05
 Reference value :  2.20578e-05
 Reference value :  2.20862e-05
 Reference value :  2.21145e-05
 Reference value :  2.21337e-05
 Reference value :  2.21586e-05
 Reference value :  2.22113e-05
 Reference value :  2.22501e-05
 Reference value :  2.22502e-05
 Reference value :  2.22503e-05
 Reference value :  2.22510e-05
 Reference value :  2.22520e-05
 Reference value :  2.22540e-05
 Reference value :  2.22553e-05
 Reference value :  2.22568e-05
 Reference value :  2.22616e-05
 Reference value :  2.22808e-05
 Reference value :  2.23942e-05
 Reference value :  2.25000e-05
 Reference value :  2.25001e-05
 Reference value :  2.25002e-05
 Reference value :  2.25009e-05
 Reference value :  2.25018e-05
 Reference value :  2.25027e-05
 Reference value :  2.25049e-05
 Reference value :  2.25067e-05
 Reference value :  2.25075e-05
 Reference value :  2.25095e-05
 Reference value :  2.25128e-05
 Reference value :  2.25283e-05
 Reference value :  2.27127e-05
 Reference value :  2.27501e-05
 Reference value :  2.27502e-05
 Reference value :  2.27503e-05
 Reference value :  2.27511e-05
 Reference value :  2.27520e-05
 Reference value :  2.27533e-05
 Reference value :  2.27546e-05
 Reference value :  2.27560e-05
 Reference value :  2.27579e-05
 Reference value :  2.27600e-05
 Reference value :  2.27655e-05
 Reference value :  2.27840e-05
 Reference value :  2.28589e-05
 Reference value :  2.30013e-05
 Reference value :  2.30039e-05
 Reference value :  2.30052e-05
 Reference value :  2.30075e-05
 Reference value :  2.30099e-05
 Reference value :  2.30123e-05
 Reference value :  2.30148e-05
 Reference value :  2.30167e-05
 Reference value :  2.30190e-05
 Reference value :  2.30214e-05
 Reference value :  2.30270e-05
 Reference value :  2.30352e-05
 Reference value :  2.30502e-05
 Reference value :  2.30736e-05
 Reference value :  2.31244e-05
 Reference value :  2.31834e-05
 Reference value :  2.32015e-05
 Reference value :  2.32501e-05
 Reference value :  2.32502e-05
 Reference value :  2.32503e-05
 Reference value :  2.32507e-05
 Reference value :  2.32520e-05
 Reference value :  2.32540e-05
 Reference value :  2.32546e-05
 Reference value :  2.32568e-05
 Reference value :  2.32595e-05
 Reference value :  2.32705e-05
 Reference value :  2.33305e-05
 Reference value :  2.35000e-05
 Reference value :  2.35001e-05
 Reference value :  2.35002e-05
 Reference value :  2.35013e-05
 Reference value :  2.35022e-05
 Reference value :  2.35040e-05
 Reference value :  2.35053e-05
 Reference value :  2.35073e-05
 Reference value :  2.35093e-05
 Reference value :  2.35124e-05
 Reference value :  2.35503e-05
 Reference value :  2.37501e-05
 Reference value :  2.37503e-05
 Reference value :  2.37511e-05
 Reference value :  2.37520e-05
 Reference value :  2.37541e-05
 Reference value :  2.37561e-05
 Reference value :  2.37596e-05
 Reference value :  2.38302e-05
 Reference value :  2.40000e-05
 Reference value :  2.40001e-05
 Reference value :  2.40005e-05
 Reference value :  2.40018e-05
 Reference value :  2.40034e-05
 Reference value :  2.40046e-05
 Reference value :  2.40064e-05
 Reference value :  2.40090e-05
 Reference value :  2.40140e-05
 Reference value :  2.40180e-05
 Reference value :  2.40216e-05
 Reference value :  2.40585e-05
 Reference value :  2.41580e-05
 Reference value :  2.42501e-05
 Reference value :  2.42502e-05
 Reference value :  2.42503e-05
 Reference value :  2.42511e-05
 Reference value :  2.42520e-05
 Reference value :  2.42540e-05
 Reference value :  2.42554e-05
 Reference value :  2.42581e-05
 Reference value :  2.42833e-05
 Reference value :  2.44383e-05
 Reference value :  2.45001e-05
 Reference value :  2.45002e-05
 Reference value :  2.45013e-05
 Reference value :  2.45027e-05
 Reference value :  2.45056e-05
 Reference value :  2.45075e-05
 Reference value :  2.45095e-05
 Reference value :  2.45128e-05
 Reference value :  2.45420e-05
 Reference value :  2.47501e-05
 Reference value :  2.47502e-05
 Reference value :  2.47507e-05
 Reference value :  2.47520e-05
 Reference value :  2.47540e-05
 Reference value :  2.47553e-05
 Reference value :  2.47578e-05
 Reference value :  2.47632e-05
 Reference value :  2.47838e-05
 Reference value :  2.48582e-05
 Reference value :  2.50000e-05
 Reference value :  2.50001e-05
 Reference value :  2.50002e-05
 Reference value :  2.50013e-05
 Reference value :  2.50022e-05
 Reference value :  2.50040e-05
 Reference value :  2.50052e-05
 Reference value :  2.50064e-05
 Reference value :  2.50090e-05
 Reference value :  2.50117e-05
 Reference value :  2.50172e-05
 Reference value :  2.50252e-05
 Reference value :  2.50762e-05
 Reference value :  2.51352e-05
 Reference value :  2.51982e-05
 Reference value :  2.52501e-05
 Reference value :  2.52502e-05
 Reference value :  2.52504e-05
 Reference value :  2.52515e-05
 Reference value :  2.52533e-05
 Reference value :  2.52561e-05
 Reference value :  2.52603e-05
 Reference value :  2.52808e-05
 Reference value :  2.54367e-05
 Reference value :  2.55000e-05
 Reference value :  2.55000e-05
 Reference value :  2.55000e-05
 Reference value :  2.55001e-05
 Reference value :  2.55001e-05
 Reference value :  2.55004e-05
 Reference value :  2.55019e-05
 Reference value :  2.55030e-05
 Reference value :  2.55044e-05
 Reference value :  2.55057e-05
 Reference value :  2.55071e-05
 Reference value :  2.55151e-05
 Reference value :  2.55288e-05
 Reference value :  2.55337e-05
 Reference value :  2.55406e-05
 Reference value :  2.55448e-05
 Reference value :  2.55512e-05
 Reference value :  2.55580e-05
 Reference value :  2.55657e-05
 Reference value :  2.55784e-05
 Reference value :  2.55867e-05
 Reference value :  2.55936e-05
 Reference value :  2.56040e-05
 Reference value :  2.56703e-05
 Reference value :  2.57501e-05
 Reference value :  2.57502e-05
 Reference value :  2.57503e-05
 Reference value :  2.57504e-05
 Reference value :  2.57515e-05
 Reference value :  2.57526e-05
 Reference value :  2.57540e-05
 Reference value :  2.57554e-05
 Reference value :  2.57582e-05
 Reference value :  2.57732e-05
 Reference value :  2.58887e-05
 Reference value :  2.60000e-05
 Reference value :  2.60001e-05
 Reference value :  2.60002e-05
 Reference value :  2.60005e-05
 Reference value :  2.60013e-05
 Reference value :  2.60022e-05
 Reference value :  2.60041e-05
 Reference value :  2.60067e-05
 Reference value :  2.60100e-05
 Reference value :  2.60128e-05
 Reference value :  2.60144e-05
 Reference value :  2.60160e-05
 Reference value :  2.60197e-05
 Reference value :  2.60317e-05
 Reference value :  2.61636e-05
 Reference value :  2.62501e-05
 Reference value :  2.62502e-05
 Reference value :  2.62503e-05
 Reference value :  2.62511e-05
 Reference value :  2.62520e-05
 Reference value :  2.62533e-05
 Reference value :  2.62547e-05
 Reference value :  2.62561e-05
 Reference value :  2.62579e-05
 Reference value :  2.62610e-05
 Reference value :  2.62731e-05
 Reference value :  2.63548e-05
 Reference value :  2.65006e-05
 Reference value :  2.65024e-05
 Reference value :  2.65043e-05
 Reference value :  2.65060e-05
 Reference value :  2.65093e-05
 Reference value :  2.65116e-05
 Reference value :  2.65139e-05
 Reference value :  2.65161e-05
 Reference value :  2.65185e-05
 Reference value :  2.65211e-05
 Reference value :  2.65277e-05
 Reference value :  2.65924e-05
 Reference value :  2.67501e-05
 Reference value :  2.67502e-05
 Reference value :  2.67507e-05
 Reference value :  2.67520e-05
 Reference value :  2.67540e-05
 Reference value :  2.67553e-05
 Reference value :  2.67568e-05
 Reference value :  2.67615e-05
 Reference value :  2.67806e-05
 Reference value :  2.70000e-05
 Reference value :  2.70001e-05
 Reference value :  2.70001e-05
 Reference value :  2.70003e-05
 Reference value :  2.70009e-05
 Reference value :  2.70013e-05
 Reference value :  2.70022e-05
 Reference value :  2.70033e-05
 Reference value :  2.70049e-05
 Reference value :  2.70067e-05
 Reference value :  2.70075e-05
 Reference value :  2.70095e-05
 Reference value :  2.70128e-05
 Reference value :  2.70208e-05
 Reference value :  2.70662e-05
 Reference value :  2.72501e-05
 Reference value :  2.72501e-05
 Reference value :  2.72502e-05
 Reference value :  2.72503e-05
 Reference value :  2.72507e-05
 Reference value :  2.72515e-05
 Reference value :  2.72520e-05
 Reference value :  2.72533e-05
 Reference value :  2.72546e-05
 Reference value :  2.72560e-05
 Reference value :  2.72578e-05
 Reference value :  2.72599e-05
 Reference value :  2.72632e-05
 Reference value :  2.72751e-05
 Reference value :  2.72986e-05
 Reference value :  2.73578e-05
 Reference value :  2.75000e-05
 Reference value :  2.75001e-05
 Reference value :  2.75001e-05
 Reference value :  2.75002e-05
 Reference value :  2.75005e-05
 Reference value :  2.75013e-05
 Reference value :  2.75022e-05
 Reference value :  2.75040e-05
 Reference value :  2.75046e-05
 Reference value :  2.75058e-05
 Reference value :  2.75080e-05
 Reference value :  2.75115e-05
 Reference value :  2.75138e-05
 Reference value :  2.75172e-05
 Reference value :  2.75208e-05
 Reference value :  2.75493e-05
 Reference value :  2.77501e-05
 Reference value :  2.77502e-05
 Reference value :  2.77504e-05
 Reference value :  2.77520e-05
 Reference value :  2.77546e-05
 Reference value :  2.77577e-05
 Reference value :  2.77980e-05
 Reference value :  2.80003e-05
 Reference value :  2.80011e-05
 Reference value :  2.80017e-05
 Reference value :  2.80040e-05
 Reference value :  2.80067e-05
 Reference value :  2.80076e-05
 Reference value :  2.80108e-05
 Reference value :  2.80171e-05
 Reference value :  2.80645e-05
 Reference value :  2.82501e-05
 Reference value :  2.82502e-05
 Reference value :  2.82510e-05
 Reference value :  2.82520e-05
 Reference value :  2.82540e-05
 Reference value :  2.82553e-05
 Reference value :  2.82568e-05
 Reference value :  2.82587e-05
 Reference value :  2.82653e-05
 Reference value :  2.83216e-05
 Reference value :  2.85000e-05
 Reference value :  2.85001e-05
 Reference value :  2.85003e-05
 Reference value :  2.85013e-05
 Reference value :  2.85028e-05
 Reference value :  2.85046e-05
 Reference value :  2.85058e-05
 Reference value :  2.85080e-05
 Reference value :  2.85115e-05
 Reference value :  2.85138e-05
 Reference value :  2.85161e-05
 Reference value :  2.85184e-05
 Reference value :  2.85209e-05
 Reference value :  2.85268e-05
 Reference value :  2.85765e-05
 Reference value :  2.86488e-05
 Reference value :  2.87433e-05
 Reference value :  2.87501e-05
 Reference value :  2.87502e-05
 Reference value :  2.87507e-05
 Reference value :  2.87515e-05
 Reference value :  2.87525e-05
 Reference value :  2.87540e-05
 Reference value :  2.87553e-05
 Reference value :  2.87560e-05
 Reference value :  2.87568e-05
 Reference value :  2.87595e-05
 Reference value :  2.87703e-05
 Reference value :  2.87980e-05
 Reference value :  2.88868e-05
 Reference value :  2.90000e-05
 Reference value :  2.90000e-05
 Reference value :  2.90000e-05
 Reference value :  2.90001e-05
 Reference value :  2.90001e-05
 Reference value :  2.90003e-05
 Reference value :  2.90007e-05
 Reference value :  2.90012e-05
 Reference value :  2.90020e-05
 Reference value :  2.90030e-05
 Reference value :  2.90036e-05
 Reference value :  2.90068e-05
 Reference value :  2.90084e-05
 Reference value :  2.90116e-05
 Reference value :  2.90207e-05
 Reference value :  2.92501e-05
 Reference value :  2.92502e-05
 Reference value :  2.92502e-05
 Reference value :  2.92504e-05
 Reference value :  2.92511e-05
 Reference value :  2.92520e-05
 Reference value :  2.92541e-05
 Reference value :  2.92554e-05
 Reference value :  2.92571e-05
 Reference value :  2.92600e-05
 Reference value :  2.92657e-05
 Reference value :  2.92990e-05
 Reference value :  2.94181e-05
 Reference value :  2.95001e-05
 Reference value :  2.95002e-05
 Reference value :  2.95013e-05
 Reference value :  2.95028e-05
 Reference value :  2.95046e-05
 Reference value :  2.95058e-05
 Reference value :  2.95071e-05
 Reference value :  2.95090e-05
 Reference value :  2.95115e-05
 Reference value :  2.95138e-05
 Reference value :  2.95162e-05
 Reference value :  2.95198e-05
 Reference value :  2.95226e-05
 Reference value :  2.95411e-05
 Reference value :  2.95794e-05
 Reference value :  2.95894e-05
 Reference value :  2.96359e-05
 Reference value :  2.97334e-05
 Reference value :  2.97501e-05
 Reference value :  2.97502e-05
 Reference value :  2.97503e-05
 Reference value :  2.97511e-05
 Reference value :  2.97520e-05
 Reference value :  2.97533e-05
 Reference value :  2.97547e-05
 Reference value :  2.97569e-05
 Reference value :  2.97618e-05
 Reference value :  2.97987e-05
 Reference value :  3.00000e-05
 Reference value :  3.00001e-05
 Reference value :  3.00001e-05
 Reference value :  3.00003e-05
 Reference value :  3.00013e-05
 Reference value :  3.00022e-05
 Reference value :  3.00040e-05
 Reference value :  3.00053e-05
 Reference value :  3.00073e-05
 Reference value :  3.00092e-05
 Reference value :  3.00112e-05
 Reference value :  3.00136e-05
 Reference value :  3.00503e-05
 Reference value :  3.02501e-05
 Reference value :  3.02502e-05
 Reference value :  3.02503e-05
 Reference value :  3.02511e-05
 Reference value :  3.02520e-05
 Reference value :  3.02541e-05
 Reference value :  3.02554e-05
 Reference value :  3.02579e-05
 Reference value :  3.02655e-05
 Reference value :  3.02998e-05
 Reference value :  3.04779e-05
 Reference value :  3.05004e-05
 Reference value :  3.05016e-05
 Reference value :  3.05024e-05
 Reference value :  3.05035e-05
 Reference value :  3.05047e-05
 Reference value :  3.05059e-05
 Reference value :  3.05080e-05
 Reference value :  3.05126e-05
 Reference value :  3.05141e-05
 Reference value :  3.05166e-05
 Reference value :  3.05189e-05
 Reference value :  3.05231e-05
 Reference value :  3.05337e-05
 Reference value :  3.05723e-05
 Reference value :  3.06037e-05
 Reference value :  3.06218e-05
 Reference value :  3.06455e-05
 Reference value :  3.06811e-05
 Reference value :  3.07422e-05
 Reference value :  3.07501e-05
 Reference value :  3.07502e-05
 Reference value :  3.07504e-05
 Reference value :  3.07511e-05
 Reference value :  3.07520e-05
 Reference value :  3.07533e-05
 Reference value :  3.07547e-05
 Reference value :  3.07570e-05
 Reference value :  3.07656e-05
 Reference value :  3.08320e-05
 Reference value :  3.10000e-05
 Reference value :  3.10001e-05
 Reference value :  3.10002e-05
 Reference value :  3.10013e-05
 Reference value :  3.10027e-05
 Reference value :  3.10056e-05
 Reference value :  3.10075e-05
 Reference value :  3.10095e-05
 Reference value :  3.10128e-05
 Reference value :  3.10283e-05
 Reference value :  3.12501e-05
 Reference value :  3.12502e-05
 Reference value :  3.12502e-05
 Reference value :  3.12504e-05
 Reference value :  3.12511e-05
 Reference value :  3.12520e-05
 Reference value :  3.12533e-05
 Reference value :  3.12546e-05
 Reference value :  3.12579e-05
 Reference value :  3.12632e-05
 Reference value :  3.13220e-05
 Reference value :  3.15000e-05
 Reference value :  3.15001e-05
 Reference value :  3.15005e-05
 Reference value :  3.15018e-05
 Reference value :  3.15034e-05
 Reference value :  3.15046e-05
 Reference value :  3.15058e-05
 Reference value :  3.15080e-05
 Reference value :  3.15115e-05
 Reference value :  3.15138e-05
 Reference value :  3.15174e-05
 Reference value :  3.15198e-05
 Reference value :  3.15278e-05
 Reference value :  3.15414e-05
 Reference value :  3.15812e-05
 Reference value :  3.16212e-05
 Reference value :  3.16670e-05
 Reference value :  3.17501e-05
 Reference value :  3.17502e-05
 Reference value :  3.17507e-05
 Reference value :  3.17520e-05
 Reference value :  3.17541e-05
 Reference value :  3.17554e-05
 Reference value :  3.17569e-05
 Reference value :  3.17618e-05
 Reference value :  3.17989e-05
 Reference value :  3.19807e-05
 Reference value :  3.20000e-05
 Reference value :  3.20001e-05
 Reference value :  3.20002e-05
 Reference value :  3.20003e-05
 Reference value :  3.20009e-05
 Reference value :  3.20013e-05
 Reference value :  3.20022e-05
 Reference value :  3.20034e-05
 Reference value :  3.20046e-05
 Reference value :  3.20063e-05
 Reference value :  3.20083e-05
 Reference value :  3.20102e-05
 Reference value :  3.20124e-05
 Reference value :  3.20212e-05
 Reference value :  3.21665e-05
 Reference value :  3.22501e-05
 Reference value :  3.22502e-05
 Reference value :  3.22504e-05
 Reference value :  3.22515e-05
 Reference value :  3.22526e-05
 Reference value :  3.22541e-05
 Reference value :  3.22547e-05
 Reference value :  3.22570e-05
 Reference value :  3.22620e-05
 Reference value :  3.22998e-05
 Reference value :  3.25000e-05
 Reference value :  3.25001e-05
 Reference value :  3.25001e-05
 Reference value :  3.25003e-05
 Reference value :  3.25013e-05
 Reference value :  3.25022e-05
 Reference value :  3.25040e-05
 Reference value :  3.25046e-05
 Reference value :  3.25058e-05
 Reference value :  3.25064e-05
 Reference value :  3.25090e-05
 Reference value :  3.25126e-05
 Reference value :  3.25140e-05
 Reference value :  3.25154e-05
 Reference value :  3.25180e-05
 Reference value :  3.25191e-05
 Reference value :  3.25216e-05
 Reference value :  3.25286e-05
 Reference value :  3.25768e-05
 Reference value :  3.27501e-05
 Reference value :  3.27502e-05
 Reference value :  3.27503e-05
 Reference value :  3.27507e-05
 Reference value :  3.27515e-05
 Reference value :  3.27520e-05
 Reference value :  3.27540e-05
 Reference value :  3.27553e-05
 Reference value :  3.27569e-05
 Reference value :  3.27617e-05
 Reference value :  3.27813e-05
 Reference value :  3.28305e-05
 Reference value :  3.29653e-05
 Reference value :  3.30000e-05
 Reference value :  3.30001e-05
 Reference value :  3.30001e-05
 Reference value :  3.30002e-05
 Reference value :  3.30009e-05
 Reference value :  3.30018e-05
 Reference value :  3.30028e-05
 Reference value :  3.30046e-05
 Reference value :  3.30063e-05
 Reference value :  3.30083e-05
 Reference value :  3.30102e-05
 Reference value :  3.30124e-05
 Reference value :  3.30310e-05
 Reference value :  3.30762e-05
 Reference value :  3.31321e-05
 Reference value :  3.32501e-05
 Reference value :  3.32502e-05
 Reference value :  3.32503e-05
 Reference value :  3.32507e-05
 Reference value :  3.32520e-05
 Reference value :  3.32533e-05
 Reference value :  3.32547e-05
 Reference value :  3.32561e-05
 Reference value :  3.32579e-05
 Reference value :  3.32600e-05
 Reference value :  3.32655e-05
 Reference value :  3.32838e-05
 Reference value :  3.33572e-05
 Reference value :  3.35015e-05
 Reference value :  3.35059e-05
 Reference value :  3.35084e-05
 Reference value :  3.35109e-05
 Reference value :  3.35130e-05
 Reference value :  3.35143e-05
 Reference value :  3.35189e-05
 Reference value :  3.35244e-05
 Reference value :  3.35443e-05
 Reference value :  3.35637e-05
 Reference value :  3.35973e-05
 Reference value :  3.36541e-05
 Reference value :  3.37501e-05
 Reference value :  3.37502e-05
 Reference value :  3.37507e-05
 Reference value :  3.37520e-05
 Reference value :  3.37532e-05
 Reference value :  3.37550e-05
 Reference value :  3.37583e-05
 Reference value :  3.37657e-05
 Reference value :  3.38121e-05
 Reference value :  3.40000e-05
 Reference value :  3.40000e-05
 Reference value :  3.40000e-05
 Reference value :  3.40000e-05
 Reference value :  3.40001e-05
 Reference value :  3.40001e-05
 Reference value :  3.40004e-05
 Reference value :  3.40019e-05
 Reference value :  3.40030e-05
 Reference value :  3.40044e-05
 Reference value :  3.40057e-05
 Reference value :  3.40071e-05
 Reference value :  3.40221e-05
 Reference value :  3.40288e-05
 Reference value :  3.40337e-05
 Reference value :  3.40374e-05
 Reference value :  3.40406e-05
 Reference value :  3.40448e-05
 Reference value :  3.40512e-05
 Reference value :  3.40580e-05
 Reference value :  3.40740e-05
 Reference value :  3.40870e-05
 Reference value :  3.40965e-05
 Reference value :  3.41054e-05
 Reference value :  3.41395e-05
 Reference value :  3.42501e-05
 Reference value :  3.42502e-05
 Reference value :  3.42503e-05
 Reference value :  3.42511e-05
 Reference value :  3.42520e-05
 Reference value :  3.42533e-05
 Reference value :  3.42547e-05
 Reference value :  3.42571e-05
 Reference value :  3.42660e-05
 Reference value :  3.43347e-05
 Reference value :  3.45000e-05
 Reference value :  3.45001e-05
 Reference value :  3.45002e-05
 Reference value :  3.45005e-05
 Reference value :  3.45013e-05
 Reference value :  3.45022e-05
 Reference value :  3.45041e-05
 Reference value :  3.45067e-05
 Reference value :  3.45100e-05
 Reference value :  3.45113e-05
 Reference value :  3.45144e-05
 Reference value :  3.45160e-05
 Reference value :  3.45197e-05
 Reference value :  3.45317e-05
 Reference value :  3.46636e-05
 Reference value :  3.47501e-05
 Reference value :  3.47502e-05
 Reference value :  3.47503e-05
 Reference value :  3.47511e-05
 Reference value :  3.47520e-05
 Reference value :  3.47533e-05
 Reference value :  3.47547e-05
 Reference value :  3.47570e-05
 Reference value :  3.47599e-05
 Reference value :  3.47651e-05
 Reference value :  3.47797e-05
 Reference value :  3.48244e-05
 Reference value :  3.49654e-05
 Reference value :  3.50000e-05
 Reference value :  3.50001e-05
 Reference value :  3.50002e-05
 Reference value :  3.50009e-05
 Reference value :  3.50018e-05
 Reference value :  3.50028e-05
 Reference value :  3.50046e-05
 Reference value :  3.50058e-05
 Reference value :  3.50071e-05
 Reference value :  3.50105e-05
 Reference value :  3.50114e-05
 Reference value :  3.50138e-05
 Reference value :  3.50161e-05
 Reference value :  3.50183e-05
 Reference value :  3.50220e-05
 Reference value :  3.50303e-05
 Reference value :  3.51573e-05
 Reference value :  3.52502e-05
 Reference value :  3.52503e-05
 Reference value :  3.52511e-05
 Reference value :  3.52525e-05
 Reference value :  3.52540e-05
 Reference value :  3.52553e-05
 Reference value :  3.52577e-05
 Reference value :  3.52703e-05
 Reference value :  3.53868e-05
 Reference value :  3.55000e-05
 Reference value :  3.55001e-05
 Reference value :  3.55003e-05
 Reference value :  3.55012e-05
 Reference value :  3.55025e-05
 Reference value :  3.55043e-05
 Reference value :  3.55069e-05
 Reference value :  3.55084e-05
 Reference value :  3.55116e-05
 Reference value :  3.55271e-05
 Reference value :  3.56695e-05
 Reference value :  3.57502e-05
 Reference value :  3.57503e-05
 Reference value :  3.57511e-05
 Reference value :  3.57520e-05
 Reference value :  3.57541e-05
 Reference value :  3.57554e-05
 Reference value :  3.57579e-05
 Reference value :  3.57612e-05
 Reference value :  3.57972e-05
 Reference value :  3.60017e-05
 Reference value :  3.60050e-05
 Reference value :  3.60067e-05
 Reference value :  3.60098e-05
 Reference value :  3.60129e-05
 Reference value :  3.60156e-05
 Reference value :  3.60190e-05
 Reference value :  3.60255e-05
 Reference value :  3.60902e-05
 Reference value :  3.62501e-05
 Reference value :  3.62503e-05
 Reference value :  3.62511e-05
 Reference value :  3.62526e-05
 Reference value :  3.62546e-05
 Reference value :  3.62568e-05
 Reference value :  3.62705e-05
 Reference value :  3.64851e-05
 Reference value :  3.65001e-05
 Reference value :  3.65002e-05
 Reference value :  3.65005e-05
 Reference value :  3.65013e-05
 Reference value :  3.65022e-05
 Reference value :  3.65041e-05
 Reference value :  3.65067e-05
 Reference value :  3.65075e-05
 Reference value :  3.65095e-05
 Reference value :  3.65128e-05
 Reference value :  3.65208e-05
 Reference value :  3.65661e-05
 Reference value :  3.67501e-05
 Reference value :  3.67502e-05
 Reference value :  3.67504e-05
 Reference value :  3.67515e-05
 Reference value :  3.67525e-05
 Reference value :  3.67540e-05
 Reference value :  3.67553e-05
 Reference value :  3.67569e-05
 Reference value :  3.67599e-05
 Reference value :  3.67654e-05
 Reference value :  3.67985e-05
 Reference value :  3.69163e-05
 Reference value :  3.70001e-05
 Reference value :  3.70002e-05
 Reference value :  3.70005e-05
 Reference value :  3.70013e-05
 Reference value :  3.70022e-05
 Reference value :  3.70040e-05
 Reference value :  3.70052e-05
 Reference value :  3.70064e-05
 Reference value :  3.70090e-05
 Reference value :  3.70115e-05
 Reference value :  3.70138e-05
 Reference value :  3.70161e-05
 Reference value :  3.70184e-05
 Reference value :  3.70209e-05
 Reference value :  3.70267e-05
 Reference value :  3.70520e-05
 Reference value :  3.71440e-05
 Reference value :  3.72002e-05
 Reference value :  3.72501e-05
 Reference value :  3.72502e-05
 Reference value :  3.72502e-05
 Reference value :  3.72503e-05
 Reference value :  3.72507e-05
 Reference value :  3.72520e-05
 Reference value :  3.72540e-05
 Reference value :  3.72553e-05
 Reference value :  3.72568e-05
 Reference value :  3.72649e-05
 Reference value :  3.73302e-05
 Reference value :  3.75000e-05
 Reference value :  3.75001e-05
 Reference value :  3.75001e-05
 Reference value :  3.75003e-05
 Reference value :  3.75013e-05
 Reference value :  3.75022e-05
 Reference value :  3.75041e-05
 Reference value :  3.75056e-05
 Reference value :  3.75075e-05
 Reference value :  3.75095e-05
 Reference value :  3.75128e-05
 Reference value :  3.75661e-05
 Reference value :  3.77501e-05
 Reference value :  3.77503e-05
 Reference value :  3.77507e-05
 Reference value :  3.77520e-05
 Reference value :  3.77540e-05
 Reference value :  3.77553e-05
 Reference value :  3.77578e-05
 Reference value :  3.77632e-05
 Reference value :  3.78211e-05
 Reference value :  3.80000e-05
 Reference value :  3.80001e-05
 Reference value :  3.80005e-05
 Reference value :  3.80018e-05
 Reference value :  3.80034e-05
 Reference value :  3.80046e-05
 Reference value :  3.80058e-05
 Reference value :  3.80080e-05
 Reference value :  3.80115e-05
 Reference value :  3.80138e-05
 Reference value :  3.80173e-05
 Reference value :  3.80211e-05
 Reference value :  3.80334e-05
 Reference value :  3.80509e-05
 Reference value :  3.80619e-05
 Reference value :  3.80789e-05
 Reference value :  3.80959e-05
 Reference value :  3.81910e-05
 Reference value :  3.82502e-05
 Reference value :  3.82503e-05
 Reference value :  3.82511e-05
 Reference value :  3.82525e-05
 Reference value :  3.82546e-05
 Reference value :  3.82569e-05
 Reference value :  3.82650e-05
 Reference value :  3.84985e-05
 Reference value :  3.85000e-05
 Reference value :  3.85002e-05
 Reference value :  3.85012e-05
 Reference value :  3.85027e-05
 Reference value :  3.85045e-05
 Reference value :  3.85085e-05
 Reference value :  3.85107e-05
 Reference value :  3.85174e-05
 Reference value :  3.86634e-05
 Reference value :  3.87502e-05
 Reference value :  3.87502e-05
 Reference value :  3.87504e-05
 Reference value :  3.87515e-05
 Reference value :  3.87525e-05
 Reference value :  3.87546e-05
 Reference value :  3.87569e-05
 Reference value :  3.87653e-05
 Reference value :  3.88316e-05
 Reference value :  3.90000e-05
 Reference value :  3.90001e-05
 Reference value :  3.90002e-05
 Reference value :  3.90005e-05
 Reference value :  3.90013e-05
 Reference value :  3.90022e-05
 Reference value :  3.90040e-05
 Reference value :  3.90052e-05
 Reference value :  3.90064e-05
 Reference value :  3.90126e-05
 Reference value :  3.90154e-05
 Reference value :  3.90191e-05
 Reference value :  3.90253e-05
 Reference value :  3.90901e-05
 Reference value :  3.91503e-05
 Reference value :  3.92110e-05
 Reference value :  3.92502e-05
 Reference value :  3.92504e-05
 Reference value :  3.92515e-05
 Reference value :  3.92525e-05
 Reference value :  3.92546e-05
 Reference value :  3.92569e-05
 Reference value :  3.92652e-05
 Reference value :  3.93309e-05
 Reference value :  3.95000e-05
 Reference value :  3.95001e-05
 Reference value :  3.95003e-05
 Reference value :  3.95013e-05
 Reference value :  3.95022e-05
 Reference value :  3.95041e-05
 Reference value :  3.95056e-05
 Reference value :  3.95075e-05
 Reference value :  3.95106e-05
 Reference value :  3.95128e-05
 Reference value :  3.95420e-05
 Reference value :  3.97501e-05
 Reference value :  3.97502e-05
 Reference value :  3.97503e-05
 Reference value :  3.97511e-05
 Reference value :  3.97520e-05
 Reference value :  3.97540e-05
 Reference value :  3.97560e-05
 Reference value :  3.97588e-05
 Reference value :  3.97632e-05
 Reference value :  3.97752e-05
 Reference value :  3.98216e-05
 Reference value :  4.00000e-05
 Reference value :  4.00001e-05
 Reference value :  4.00001e-05
 Reference value :  4.00003e-05
 Reference value :  4.00013e-05
 Reference value :  4.00022e-05
 Reference value :  4.00040e-05
 Reference value :  4.00046e-05
 Reference value :  4.00058e-05
 Reference value :  4.00071e-05
 Reference value :  4.00105e-05
 Reference value :  4.00115e-05
 Reference value :  4.00138e-05
 Reference value :  4.00162e-05
 Reference value :  4.00185e-05
 Reference value :  4.00212e-05
 Reference value :  4.00278e-05
 Reference value :  4.00371e-05
 Reference value :  4.00459e-05
 Reference value :  4.00830e-05
 Reference value :  4.01004e-05
 Reference value :  4.01245e-05
 Reference value :  4.01979e-05
 Reference value :  4.02501e-05
 Reference value :  4.02502e-05
 Reference value :  4.02503e-05
 Reference value :  4.02511e-05
 Reference value :  4.02520e-05
 Reference value :  4.02540e-05
 Reference value :  4.02553e-05
 Reference value :  4.02569e-05
 Reference value :  4.02617e-05
 Reference value :  4.02983e-05
 Reference value :  4.05000e-05
 Reference value :  4.05001e-05
 Reference value :  4.05001e-05
 Reference value :  4.05003e-05
 Reference value :  4.05013e-05
 Reference value :  4.05022e-05
 Reference value :  4.05040e-05
 Reference value :  4.05053e-05
 Reference value :  4.05083e-05
 Reference value :  4.05102e-05
 Reference value :  4.05136e-05
 Reference value :  4.05503e-05
 Reference value :  4.07501e-05
 Reference value :  4.07502e-05
 Reference value :  4.07503e-05
 Reference value :  4.07511e-05
 Reference value :  4.07520e-05
 Reference value :  4.07541e-05
 Reference value :  4.07554e-05
 Reference value :  4.07579e-05
 Reference value :  4.07715e-05
 Reference value :  4.08847e-05
 Reference value :  4.10004e-05
 Reference value :  4.10015e-05
 Reference value :  4.10024e-05
 Reference value :  4.10035e-05
 Reference value :  4.10047e-05
 Reference value :  4.10059e-05
 Reference value :  4.10080e-05
 Reference value :  4.10126e-05
 Reference value :  4.10141e-05
 Reference value :  4.10165e-05
 Reference value :  4.10189e-05
 Reference value :  4.10229e-05
 Reference value :  4.10572e-05
 Reference value :  4.12501e-05
 Reference value :  4.12502e-05
 Reference value :  4.12504e-05
 Reference value :  4.12515e-05
 Reference value :  4.12526e-05
 Reference value :  4.12541e-05
 Reference value :  4.12554e-05
 Reference value :  4.12569e-05
 Reference value :  4.12618e-05
 Reference value :  4.12814e-05
 Reference value :  4.13845e-05
 Reference value :  4.15000e-05
 Reference value :  4.15001e-05
 Reference value :  4.15002e-05
 Reference value :  4.15005e-05
 Reference value :  4.15013e-05
 Reference value :  4.15022e-05
 Reference value :  4.15040e-05
 Reference value :  4.15053e-05
 Reference value :  4.15073e-05
 Reference value :  4.15102e-05
 Reference value :  4.15136e-05
 Reference value :  4.16670e-05
 Reference value :  4.17501e-05
 Reference value :  4.17502e-05
 Reference value :  4.17504e-05
 Reference value :  4.17515e-05
 Reference value :  4.17533e-05
 Reference value :  4.17547e-05
 Reference value :  4.17569e-05
 Reference value :  4.17619e-05
 Reference value :  4.17990e-05
 Reference value :  4.20000e-05
 Reference value :  4.20001e-05
 Reference value :  4.20001e-05
 Reference value :  4.20005e-05
 Reference value :  4.20013e-05
 Reference value :  4.20022e-05
 Reference value :  4.20034e-05
 Reference value :  4.20046e-05
 Reference value :  4.20058e-05
 Reference value :  4.20064e-05
 Reference value :  4.20080e-05
 Reference value :  4.20100e-05
 Reference value :  4.20125e-05
 Reference value :  4.20233e-05
 Reference value :  4.20855e-05
 Reference value :  4.22501e-05
 Reference value :  4.22502e-05
 Reference value :  4.22502e-05
 Reference value :  4.22503e-05
 Reference value :  4.22504e-05
 Reference value :  4.22511e-05
 Reference value :  4.22520e-05
 Reference value :  4.22533e-05
 Reference value :  4.22542e-05
 Reference value :  4.22561e-05
 Reference value :  4.22585e-05
 Reference value :  4.22628e-05
 Reference value :  4.22721e-05
 Reference value :  4.22939e-05
 Reference value :  4.23551e-05
 Reference value :  4.25000e-05
 Reference value :  4.25000e-05
 Reference value :  4.25000e-05
 Reference value :  4.25000e-05
 Reference value :  4.25000e-05
 Reference value :  4.25000e-05
 Reference value :  4.25000e-05
 Reference value :  4.25001e-05
 Reference value :  4.25001e-05
 Reference value :  4.25002e-05
 Reference value :  4.25008e-05
 Reference value :  4.25019e-05
 Reference value :  4.25030e-05
 Reference value :  4.25037e-05
 Reference value :  4.25051e-05
 Reference value :  4.25057e-05
 Reference value :  4.25071e-05
 Reference value :  4.25094e-05
 Reference value :  4.25221e-05
 Reference value :  4.25229e-05
 Reference value :  4.25274e-05
 Reference value :  4.25302e-05
 Reference value :  4.25347e-05
 Reference value :  4.25381e-05
 Reference value :  4.25409e-05
 Reference value :  4.25436e-05
 Reference value :  4.25464e-05
 Reference value :  4.25487e-05
 Reference value :  4.25525e-05
 Reference value :  4.25597e-05
 Reference value :  4.25720e-05
 Reference value :  4.25842e-05
 Reference value :  4.26047e-05
 Reference value :  4.26777e-05
 Reference value :  4.27501e-05
 Reference value :  4.27502e-05
 Reference value :  4.27503e-05
 Reference value :  4.27511e-05
 Reference value :  4.27520e-05
 Reference value :  4.27533e-05
 Reference value :  4.27547e-05
 Reference value :  4.27560e-05
 Reference value :  4.27599e-05
 Reference value :  4.27729e-05
 Reference value :  4.28340e-05
 Reference value :  4.30000e-05
 Reference value :  4.30001e-05
 Reference value :  4.30002e-05
 Reference value :  4.30013e-05
 Reference value :  4.30022e-05
 Reference value :  4.30041e-05
 Reference value :  4.30067e-05
 Reference value :  4.30113e-05
 Reference value :  4.30144e-05
 Reference value :  4.30160e-05
 Reference value :  4.30197e-05
 Reference value :  4.30318e-05
 Reference value :  4.31660e-05
 Reference value :  4.32502e-05
 Reference value :  4.32503e-05
 Reference value :  4.32507e-05
 Reference value :  4.32520e-05
 Reference value :  4.32540e-05
 Reference value :  4.32561e-05
 Reference value :  4.32588e-05
 Reference value :  4.32631e-05
 Reference value :  4.32814e-05
 Reference value :  4.33735e-05
 Reference value :  4.35010e-05
 Reference value :  4.35039e-05
 Reference value :  4.35056e-05
 Reference value :  4.35071e-05
 Reference value :  4.35100e-05
 Reference value :  4.35120e-05
 Reference value :  4.35131e-05
 Reference value :  4.35156e-05
 Reference value :  4.35178e-05
 Reference value :  4.35202e-05
 Reference value :  4.35230e-05
 Reference value :  4.35330e-05
 Reference value :  4.36268e-05
 Reference value :  4.37501e-05
 Reference value :  4.37502e-05
 Reference value :  4.37503e-05
 Reference value :  4.37507e-05
 Reference value :  4.37515e-05
 Reference value :  4.37520e-05
 Reference value :  4.37533e-05
 Reference value :  4.37546e-05
 Reference value :  4.37560e-05
 Reference value :  4.37578e-05
 Reference value :  4.37617e-05
 Reference value :  4.37812e-05
 Reference value :  4.38855e-05
 Reference value :  4.40000e-05
 Reference value :  4.40001e-05
 Reference value :  4.40002e-05
 Reference value :  4.40005e-05
 Reference value :  4.40013e-05
 Reference value :  4.40022e-05
 Reference value :  4.40049e-05
 Reference value :  4.40075e-05
 Reference value :  4.40095e-05
 Reference value :  4.40116e-05
 Reference value :  4.40141e-05
 Reference value :  4.41144e-05
 Reference value :  4.42501e-05
 Reference value :  4.42502e-05
 Reference value :  4.42504e-05
 Reference value :  4.42520e-05
 Reference value :  4.42533e-05
 Reference value :  4.42546e-05
 Reference value :  4.42569e-05
 Reference value :  4.42612e-05
 Reference value :  4.42751e-05
 Reference value :  4.44159e-05
 Reference value :  4.45001e-05
 Reference value :  4.45002e-05
 Reference value :  4.45013e-05
 Reference value :  4.45028e-05
 Reference value :  4.45046e-05
 Reference value :  4.45058e-05
 Reference value :  4.45080e-05
 Reference value :  4.45115e-05
 Reference value :  4.45138e-05
 Reference value :  4.45172e-05
 Reference value :  4.45195e-05
 Reference value :  4.45243e-05
 Reference value :  4.45491e-05
 Reference value :  4.46528e-05
 Reference value :  4.47501e-05
 Reference value :  4.47502e-05
 Reference value :  4.47507e-05
 Reference value :  4.47520e-05
 Reference value :  4.47540e-05
 Reference value :  4.47559e-05
 Reference value :  4.47594e-05
 Reference value :  4.48303e-05
 Reference value :  4.50000e-05
 Reference value :  4.50001e-05
 Reference value :  4.50009e-05
 Reference value :  4.50018e-05
 Reference value :  4.50027e-05
 Reference value :  4.50041e-05
 Reference value :  4.50056e-05
 Reference value :  4.50075e-05
 Reference value :  4.50095e-05
 Reference value :  4.50128e-05
 Reference value :  4.50208e-05
 Reference value :  4.51145e-05
 Reference value :  4.52501e-05
 Reference value :  4.52502e-05
 Reference value :  4.52504e-05
 Reference value :  4.52515e-05
 Reference value :  4.52525e-05
 Reference value :  4.52546e-05
 Reference value :  4.52569e-05
 Reference value :  4.52599e-05
 Reference value :  4.52654e-05
 Reference value :  4.52984e-05
 Reference value :  4.55000e-05
 Reference value :  4.55001e-05
 Reference value :  4.55002e-05
 Reference value :  4.55009e-05
 Reference value :  4.55018e-05
 Reference value :  4.55028e-05
 Reference value :  4.55046e-05
 Reference value :  4.55058e-05
 Reference value :  4.55080e-05
 Reference value :  4.55115e-05
 Reference value :  4.55138e-05
 Reference value :  4.55161e-05
 Reference value :  4.55184e-05
 Reference value :  4.55209e-05
 Reference value :  4.55267e-05
 Reference value :  4.55760e-05
 Reference value :  4.56443e-05
 Reference value :  4.57007e-05
 Reference value :  4.57501e-05
 Reference value :  4.57502e-05
 Reference value :  4.57502e-05
 Reference value :  4.57503e-05
 Reference value :  4.57507e-05
 Reference value :  4.57515e-05
 Reference value :  4.57520e-05
 Reference value :  4.57533e-05
 Reference value :  4.57540e-05
 Reference value :  4.57546e-05
 Reference value :  4.57560e-05
 Reference value :  4.57568e-05
 Reference value :  4.57595e-05
 Reference value :  4.57703e-05
 Reference value :  4.58303e-05
 Reference value :  4.60000e-05
 Reference value :  4.60000e-05
 Reference value :  4.60001e-05
 Reference value :  4.60002e-05
 Reference value :  4.60007e-05
 Reference value :  4.60021e-05
 Reference value :  4.60037e-05
 Reference value :  4.60050e-05
 Reference value :  4.60070e-05
 Reference value :  4.60077e-05
 Reference value :  4.60096e-05
 Reference value :  4.60130e-05
 Reference value :  4.60265e-05
 Reference value :  4.61524e-05
 Reference value :  4.62502e-05
 Reference value :  4.62502e-05
 Reference value :  4.62504e-05
 Reference value :  4.62515e-05
 Reference value :  4.62526e-05
 Reference value :  4.62541e-05
 Reference value :  4.62554e-05
 Reference value :  4.62579e-05
 Reference value :  4.62632e-05
 Reference value :  4.62843e-05
 Reference value :  4.65000e-05
 Reference value :  4.65001e-05
 Reference value :  4.65002e-05
 Reference value :  4.65013e-05
 Reference value :  4.65022e-05
 Reference value :  4.65040e-05
 Reference value :  4.65046e-05
 Reference value :  4.65058e-05
 Reference value :  4.65071e-05
 Reference value :  4.65105e-05
 Reference value :  4.65115e-05
 Reference value :  4.65138e-05
 Reference value :  4.65162e-05
 Reference value :  4.65185e-05
 Reference value :  4.65211e-05
 Reference value :  4.65330e-05
 Reference value :  4.65509e-05
 Reference value :  4.65628e-05
 Reference value :  4.65726e-05
 Reference value :  4.65776e-05
 Reference value :  4.65934e-05
 Reference value :  4.66338e-05
 Reference value :  4.67277e-05
 Reference value :  4.67502e-05
 Reference value :  4.67504e-05
 Reference value :  4.67515e-05
 Reference value :  4.67525e-05
 Reference value :  4.67540e-05
 Reference value :  4.67553e-05
 Reference value :  4.67578e-05
 Reference value :  4.67705e-05
 Reference value :  4.69985e-05
 Reference value :  4.70000e-05
 Reference value :  4.70001e-05
 Reference value :  4.70003e-05
 Reference value :  4.70013e-05
 Reference value :  4.70022e-05
 Reference value :  4.70046e-05
 Reference value :  4.70083e-05
 Reference value :  4.70124e-05
 Reference value :  4.70891e-05
 Reference value :  4.72501e-05
 Reference value :  4.72502e-05
 Reference value :  4.72511e-05
 Reference value :  4.72526e-05
 Reference value :  4.72547e-05
 Reference value :  4.72597e-05
 Reference value :  4.73847e-05
 Reference value :  4.75000e-05
 Reference value :  4.75001e-05
 Reference value :  4.75009e-05
 Reference value :  4.75022e-05
[...]
 Reference value :  1.67016e-04
 Reference value :  1.67089e-04
 Reference value :  1.67250e-04
 Reference value :  1.67250e-04
 Reference value :  1.67250e-04
 Reference value :  1.67252e-04
 Reference value :  1.67253e-04
 Reference value :  1.67254e-04
 Reference value :  1.67255e-04
 Reference value :  1.67258e-04
 Reference value :  1.67272e-04
 Reference value :  1.67385e-04
 Reference value :  1.67500e-04
 Reference value :  1.67500e-04
 Reference value :  1.67501e-04
 Reference value :  1.67503e-04
 Reference value :  1.67505e-04
 Reference value :  1.67506e-04
 Reference value :  1.67513e-04
 Reference value :  1.67515e-04
 Reference value :  1.67519e-04
 Reference value :  1.67525e-04
 Reference value :  1.67568e-04
 Reference value :  1.67750e-04
 Reference value :  1.67750e-04
 Reference value :  1.67750e-04
 Reference value :  1.67752e-04
 Reference value :  1.67755e-04
 Reference value :  1.67758e-04
 Reference value :  1.67782e-04
 Reference value :  1.68000e-04
 Reference value :  1.68000e-04
 Reference value :  1.68000e-04
 Reference value :  1.68001e-04
 Reference value :  1.68002e-04
 Reference value :  1.68004e-04
 Reference value :  1.68005e-04
 Reference value :  1.68007e-04
 Reference value :  1.68009e-04
 Reference value :  1.68012e-04
 Reference value :  1.68050e-04
 Reference value :  1.68250e-04
 Reference value :  1.68250e-04
 Reference value :  1.68250e-04
 Reference value :  1.68252e-04
 Reference value :  1.68254e-04
 Reference value :  1.68256e-04
 Reference value :  1.68266e-04
 Reference value :  1.68478e-04
 Reference value :  1.68500e-04
 Reference value :  1.68500e-04
 Reference value :  1.68501e-04
 Reference value :  1.68502e-04
 Reference value :  1.68503e-04
 Reference value :  1.68505e-04
 Reference value :  1.68506e-04
 Reference value :  1.68506e-04
 Reference value :  1.68509e-04
 Reference value :  1.68513e-04
 Reference value :  1.68514e-04
 Reference value :  1.68515e-04
 Reference value :  1.68518e-04
 Reference value :  1.68519e-04
 Reference value :  1.68522e-04
 Reference value :  1.68529e-04
 Reference value :  1.68558e-04
 Reference value :  1.68718e-04
 Reference value :  1.68750e-04
 Reference value :  1.68750e-04
 Reference value :  1.68750e-04
 Reference value :  1.68751e-04
 Reference value :  1.68752e-04
 Reference value :  1.68753e-04
 Reference value :  1.68754e-04
 Reference value :  1.68755e-04
 Reference value :  1.68756e-04
 Reference value :  1.68757e-04
 Reference value :  1.68762e-04
 Reference value :  1.68781e-04
 Reference value :  1.68830e-04
 Reference value :  1.68948e-04
 Reference value :  1.69000e-04
 Reference value :  1.69000e-04
 Reference value :  1.69000e-04
 Reference value :  1.69000e-04
 Reference value :  1.69001e-04
 Reference value :  1.69001e-04
 Reference value :  1.69002e-04
 Reference value :  1.69003e-04
 Reference value :  1.69005e-04
 Reference value :  1.69006e-04
 Reference value :  1.69007e-04
 Reference value :  1.69008e-04
 Reference value :  1.69009e-04
 Reference value :  1.69010e-04
 Reference value :  1.69012e-04
 Reference value :  1.69016e-04
 Reference value :  1.69031e-04
 Reference value :  1.69048e-04
 Reference value :  1.69083e-04
 Reference value :  1.69163e-04
 Reference value :  1.69250e-04
 Reference value :  1.69250e-04
 Reference value :  1.69250e-04
 Reference value :  1.69251e-04
 Reference value :  1.69252e-04
 Reference value :  1.69252e-04
 Reference value :  1.69253e-04
 Reference value :  1.69254e-04
 Reference value :  1.69255e-04
 Reference value :  1.69257e-04
 Reference value :  1.69259e-04
 Reference value :  1.69263e-04
 Reference value :  1.69275e-04
 Reference value :  1.69357e-04
 Reference value :  1.69500e-04
 Reference value :  1.69500e-04
 Reference value :  1.69500e-04
 Reference value :  1.69501e-04
 Reference value :  1.69502e-04
 Reference value :  1.69503e-04
 Reference value :  1.69505e-04
 Reference value :  1.69506e-04
 Reference value :  1.69507e-04
 Reference value :  1.69510e-04
 Reference value :  1.69512e-04
 Reference value :  1.69514e-04
 Reference value :  1.69517e-04
 Reference value :  1.69525e-04
 Reference value :  1.69544e-04
 Reference value :  1.69559e-04
 Reference value :  1.69573e-04
 Reference value :  1.69644e-04
 Reference value :  1.69750e-04
 Reference value :  1.69750e-04
 Reference value :  1.69750e-04
 Reference value :  1.69752e-04
 Reference value :  1.69753e-04
 Reference value :  1.69755e-04
 Reference value :  1.69759e-04
 Reference value :  1.69772e-04
 Reference value :  1.69858e-04
 Reference value :  1.70000e-04
 Reference value :  1.70000e-04
 Reference value :  1.70000e-04
 Reference value :  1.70000e-04
 Reference value :  1.70000e-04
 Reference value :  1.70000e-04
 Reference value :  1.70000e-04
 Reference value :  1.70000e-04
 Reference value :  1.70001e-04
 Reference value :  1.70002e-04
 Reference value :  1.70004e-04
 Reference value :  1.70005e-04
 Reference value :  1.70006e-04
 Reference value :  1.70008e-04
 Reference value :  1.70022e-04
 Reference value :  1.70029e-04
 Reference value :  1.70034e-04
 Reference value :  1.70037e-04
 Reference value :  1.70041e-04
 Reference value :  1.70045e-04
 Reference value :  1.70048e-04
 Reference value :  1.70052e-04
 Reference value :  1.70059e-04
 Reference value :  1.70080e-04
 Reference value :  1.70095e-04
 Reference value :  1.70101e-04
 Reference value :  1.70112e-04
 Reference value :  1.70121e-04
 Reference value :  1.70131e-04
 Reference value :  1.70151e-04
 Reference value :  1.70217e-04
 Reference value :  1.70250e-04
 Reference value :  1.70250e-04
 Reference value :  1.70250e-04
 Reference value :  1.70251e-04
 Reference value :  1.70252e-04
 Reference value :  1.70254e-04
 Reference value :  1.70255e-04
 Reference value :  1.70260e-04
 Reference value :  1.70301e-04
 Reference value :  1.70500e-04
 Reference value :  1.70500e-04
 Reference value :  1.70500e-04
 Reference value :  1.70501e-04
 Reference value :  1.70502e-04
 Reference value :  1.70503e-04
 Reference value :  1.70505e-04
 Reference value :  1.70507e-04
 Reference value :  1.70510e-04
 Reference value :  1.70513e-04
 Reference value :  1.70514e-04
 Reference value :  1.70516e-04
 Reference value :  1.70522e-04
 Reference value :  1.70665e-04
 Reference value :  1.70750e-04
 Reference value :  1.70750e-04
 Reference value :  1.70751e-04
 Reference value :  1.70752e-04
 Reference value :  1.70753e-04
 Reference value :  1.70755e-04
 Reference value :  1.70757e-04
 Reference value :  1.70759e-04
 Reference value :  1.70763e-04
 Reference value :  1.70780e-04
 Reference value :  1.70855e-04
 Reference value :  1.71000e-04
 Reference value :  1.71000e-04
 Reference value :  1.71001e-04
 Reference value :  1.71001e-04
 Reference value :  1.71002e-04
 Reference value :  1.71004e-04
 Reference value :  1.71005e-04
 Reference value :  1.71006e-04
 Reference value :  1.71006e-04
 Reference value :  1.71008e-04
 Reference value :  1.71010e-04
 Reference value :  1.71011e-04
 Reference value :  1.71014e-04
 Reference value :  1.71016e-04
 Reference value :  1.71018e-04
 Reference value :  1.71022e-04
 Reference value :  1.71030e-04
 Reference value :  1.71097e-04
 Reference value :  1.71250e-04
 Reference value :  1.71250e-04
 Reference value :  1.71250e-04
 Reference value :  1.71250e-04
 Reference value :  1.71251e-04
 Reference value :  1.71252e-04
 Reference value :  1.71254e-04
 Reference value :  1.71255e-04
 Reference value :  1.71257e-04
 Reference value :  1.71262e-04
 Reference value :  1.71281e-04
 Reference value :  1.71387e-04
 Reference value :  1.71500e-04
 Reference value :  1.71500e-04
 Reference value :  1.71500e-04
 Reference value :  1.71500e-04
 Reference value :  1.71501e-04
 Reference value :  1.71501e-04
 Reference value :  1.71502e-04
 Reference value :  1.71503e-04
 Reference value :  1.71506e-04
 Reference value :  1.71508e-04
 Reference value :  1.71509e-04
 Reference value :  1.71512e-04
 Reference value :  1.71517e-04
 Reference value :  1.71542e-04
 Reference value :  1.71750e-04
 Reference value :  1.71750e-04
 Reference value :  1.71750e-04
 Reference value :  1.71751e-04
 Reference value :  1.71752e-04
 Reference value :  1.71754e-04
 Reference value :  1.71755e-04
 Reference value :  1.71757e-04
 Reference value :  1.71760e-04
 Reference value :  1.71769e-04
 Reference value :  1.71821e-04
 Reference value :  1.72000e-04
 Reference value :  1.72000e-04
 Reference value :  1.72000e-04
 Reference value :  1.72001e-04
 Reference value :  1.72002e-04
 Reference value :  1.72004e-04
 Reference value :  1.72005e-04
 Reference value :  1.72006e-04
 Reference value :  1.72007e-04
 Reference value :  1.72010e-04
 Reference value :  1.72013e-04
 Reference value :  1.72015e-04
 Reference value :  1.72017e-04
 Reference value :  1.72020e-04
 Reference value :  1.72024e-04
 Reference value :  1.72049e-04
 Reference value :  1.72240e-04
 Reference value :  1.72250e-04
 Reference value :  1.72250e-04
 Reference value :  1.72251e-04
 Reference value :  1.72252e-04
 Reference value :  1.72254e-04
 Reference value :  1.72255e-04
 Reference value :  1.72257e-04
 Reference value :  1.72265e-04
 Reference value :  1.72330e-04
 Reference value :  1.72500e-04
 Reference value :  1.72500e-04
 Reference value :  1.72500e-04
 Reference value :  1.72501e-04
 Reference value :  1.72501e-04
 Reference value :  1.72502e-04
 Reference value :  1.72503e-04
 Reference value :  1.72505e-04
 Reference value :  1.72507e-04
 Reference value :  1.72508e-04
 Reference value :  1.72509e-04
 Reference value :  1.72512e-04
 Reference value :  1.72514e-04
 Reference value :  1.72528e-04
 Reference value :  1.72614e-04
 Reference value :  1.72750e-04
 Reference value :  1.72750e-04
 Reference value :  1.72750e-04
 Reference value :  1.72751e-04
 Reference value :  1.72752e-04
 Reference value :  1.72754e-04
 Reference value :  1.72755e-04
 Reference value :  1.72757e-04
 Reference value :  1.72759e-04
 Reference value :  1.72763e-04
 Reference value :  1.72784e-04
 Reference value :  1.72916e-04
 Reference value :  1.73000e-04
 Reference value :  1.73000e-04
 Reference value :  1.73001e-04
 Reference value :  1.73002e-04
 Reference value :  1.73004e-04
 Reference value :  1.73005e-04
 Reference value :  1.73006e-04
 Reference value :  1.73009e-04
 Reference value :  1.73011e-04
 Reference value :  1.73014e-04
 Reference value :  1.73016e-04
 Reference value :  1.73018e-04
 Reference value :  1.73022e-04
 Reference value :  1.73040e-04
 Reference value :  1.73073e-04
 Reference value :  1.73149e-04
 Reference value :  1.73197e-04
 Reference value :  1.73230e-04
 Reference value :  1.73250e-04
 Reference value :  1.73250e-04
 Reference value :  1.73251e-04
 Reference value :  1.73253e-04
 Reference value :  1.73254e-04
 Reference value :  1.73255e-04
 Reference value :  1.73257e-04
 Reference value :  1.73262e-04
 Reference value :  1.73298e-04
 Reference value :  1.73315e-04
 Reference value :  1.73340e-04
 Reference value :  1.73396e-04
 Reference value :  1.73500e-04
 Reference value :  1.73500e-04
 Reference value :  1.73500e-04
 Reference value :  1.73501e-04
 Reference value :  1.73502e-04
 Reference value :  1.73504e-04
 Reference value :  1.73507e-04
 Reference value :  1.73508e-04
 Reference value :  1.73511e-04
 Reference value :  1.73514e-04
 Reference value :  1.73614e-04
 Reference value :  1.73750e-04
 Reference value :  1.73750e-04
 Reference value :  1.73751e-04
 Reference value :  1.73752e-04
 Reference value :  1.73754e-04
 Reference value :  1.73755e-04
 Reference value :  1.73757e-04
 Reference value :  1.73760e-04
 Reference value :  1.73769e-04
 Reference value :  1.73799e-04
 Reference value :  1.73916e-04
 Reference value :  1.74000e-04
 Reference value :  1.74000e-04
 Reference value :  1.74000e-04
 Reference value :  1.74001e-04
 Reference value :  1.74002e-04
 Reference value :  1.74002e-04
 Reference value :  1.74003e-04
 Reference value :  1.74005e-04
 Reference value :  1.74006e-04
 Reference value :  1.74006e-04
 Reference value :  1.74008e-04
 Reference value :  1.74010e-04
 Reference value :  1.74011e-04
 Reference value :  1.74014e-04
 Reference value :  1.74016e-04
 Reference value :  1.74019e-04
 Reference value :  1.74021e-04
 Reference value :  1.74028e-04
 Reference value :  1.74038e-04
 Reference value :  1.74048e-04
 Reference value :  1.74056e-04
 Reference value :  1.74074e-04
 Reference value :  1.74095e-04
 Reference value :  1.74119e-04
 Reference value :  1.74237e-04
 Reference value :  1.74250e-04
 Reference value :  1.74250e-04
 Reference value :  1.74250e-04
 Reference value :  1.74251e-04
 Reference value :  1.74252e-04
 Reference value :  1.74252e-04
 Reference value :  1.74254e-04
 Reference value :  1.74255e-04
 Reference value :  1.74257e-04
 Reference value :  1.74259e-04
 Reference value :  1.74265e-04
 Reference value :  1.74298e-04
 Reference value :  1.74498e-04
 Reference value :  1.74500e-04
 Reference value :  1.74500e-04
 Reference value :  1.74500e-04
 Reference value :  1.74501e-04
 Reference value :  1.74502e-04
 Reference value :  1.74503e-04
 Reference value :  1.74505e-04
 Reference value :  1.74506e-04
 Reference value :  1.74508e-04
 Reference value :  1.74510e-04
 Reference value :  1.74512e-04
 Reference value :  1.74531e-04
 Reference value :  1.74750e-04
 Reference value :  1.74750e-04
 Reference value :  1.74750e-04
 Reference value :  1.74750e-04
 Reference value :  1.74752e-04
 Reference value :  1.74753e-04
 Reference value :  1.74754e-04
 Reference value :  1.74755e-04
 Reference value :  1.74757e-04
 Reference value :  1.74762e-04
 Reference value :  1.74800e-04
 Reference value :  1.75000e-04
 Reference value :  1.75000e-04
 Reference value :  1.75000e-04
 Reference value :  1.75000e-04
 Reference value :  1.75001e-04
 Reference value :  1.75002e-04
 Reference value :  1.75003e-04
 Reference value :  1.75005e-04
 Reference value :  1.75006e-04
 Reference value :  1.75007e-04
 Reference value :  1.75011e-04
 Reference value :  1.75014e-04
 Reference value :  1.75017e-04
 Reference value :  1.75019e-04
 Reference value :  1.75022e-04
 Reference value :  1.75029e-04
 Reference value :  1.75042e-04
 Reference value :  1.75094e-04
 Reference value :  1.75224e-04
 Reference value :  1.75250e-04
 Reference value :  1.75250e-04
 Reference value :  1.75251e-04
 Reference value :  1.75252e-04
 Reference value :  1.75253e-04
 Reference value :  1.75255e-04
 Reference value :  1.75257e-04
 Reference value :  1.75271e-04
 Reference value :  1.75498e-04
 Reference value :  1.75500e-04
 Reference value :  1.75500e-04
 Reference value :  1.75500e-04
 Reference value :  1.75500e-04
 Reference value :  1.75501e-04
 Reference value :  1.75502e-04
 Reference value :  1.75504e-04
 Reference value :  1.75505e-04
 Reference value :  1.75507e-04
 Reference value :  1.75508e-04
 Reference value :  1.75509e-04
 Reference value :  1.75510e-04
 Reference value :  1.75512e-04
 Reference value :  1.75521e-04
 Reference value :  1.75550e-04
 Reference value :  1.75667e-04
 Reference value :  1.75750e-04
 Reference value :  1.75750e-04
 Reference value :  1.75750e-04
 Reference value :  1.75750e-04
 Reference value :  1.75751e-04
 Reference value :  1.75752e-04
 Reference value :  1.75752e-04
 Reference value :  1.75753e-04
 Reference value :  1.75754e-04
 Reference value :  1.75755e-04
 Reference value :  1.75756e-04
 Reference value :  1.75758e-04
 Reference value :  1.75762e-04
 Reference value :  1.75772e-04
 Reference value :  1.75831e-04
 Reference value :  1.76000e-04
 Reference value :  1.76000e-04
 Reference value :  1.76000e-04
 Reference value :  1.76000e-04
 Reference value :  1.76000e-04
 Reference value :  1.76001e-04
 Reference value :  1.76001e-04
 Reference value :  1.76002e-04
 Reference value :  1.76003e-04
 Reference value :  1.76005e-04
 Reference value :  1.76006e-04
 Reference value :  1.76006e-04
 Reference value :  1.76008e-04
 Reference value :  1.76011e-04
 Reference value :  1.76014e-04
 Reference value :  1.76015e-04
 Reference value :  1.76018e-04
 Reference value :  1.76019e-04
 Reference value :  1.76022e-04
 Reference value :  1.76025e-04
 Reference value :  1.76054e-04
 Reference value :  1.76131e-04
 Reference value :  1.76250e-04
 Reference value :  1.76250e-04
 Reference value :  1.76250e-04
 Reference value :  1.76251e-04
 Reference value :  1.76252e-04
 Reference value :  1.76254e-04
 Reference value :  1.76255e-04
 Reference value :  1.76257e-04
 Reference value :  1.76262e-04
 Reference value :  1.76299e-04
 Reference value :  1.76500e-04
 Reference value :  1.76500e-04
 Reference value :  1.76500e-04
 Reference value :  1.76500e-04
 Reference value :  1.76501e-04
 Reference value :  1.76501e-04
 Reference value :  1.76502e-04
 Reference value :  1.76503e-04
 Reference value :  1.76505e-04
 Reference value :  1.76506e-04
 Reference value :  1.76507e-04
 Reference value :  1.76509e-04
 Reference value :  1.76511e-04
 Reference value :  1.76514e-04
 Reference value :  1.76531e-04
 Reference value :  1.76750e-04
 Reference value :  1.76750e-04
 Reference value :  1.76750e-04
 Reference value :  1.76750e-04
 Reference value :  1.76751e-04
 Reference value :  1.76752e-04
 Reference value :  1.76752e-04
 Reference value :  1.76753e-04
 Reference value :  1.76754e-04
 Reference value :  1.76755e-04
 Reference value :  1.76756e-04
 Reference value :  1.76760e-04
 Reference value :  1.76782e-04
 Reference value :  1.76885e-04
 Reference value :  1.77000e-04
 Reference value :  1.77000e-04
 Reference value :  1.77000e-04
 Reference value :  1.77001e-04
 Reference value :  1.77002e-04
 Reference value :  1.77003e-04
 Reference value :  1.77004e-04
 Reference value :  1.77005e-04
 Reference value :  1.77006e-04
 Reference value :  1.77007e-04
 Reference value :  1.77011e-04
 Reference value :  1.77014e-04
 Reference value :  1.77017e-04
 Reference value :  1.77019e-04
 Reference value :  1.77023e-04
 Reference value :  1.77043e-04
 Reference value :  1.77233e-04
 Reference value :  1.77250e-04
 Reference value :  1.77250e-04
 Reference value :  1.77250e-04
 Reference value :  1.77252e-04
 Reference value :  1.77253e-04
 Reference value :  1.77254e-04
 Reference value :  1.77255e-04
 Reference value :  1.77257e-04
 Reference value :  1.77262e-04
 Reference value :  1.77271e-04
 Reference value :  1.77386e-04
 Reference value :  1.77500e-04
 Reference value :  1.77500e-04
 Reference value :  1.77501e-04
 Reference value :  1.77503e-04
 Reference value :  1.77505e-04
 Reference value :  1.77507e-04
 Reference value :  1.77509e-04
 Reference value :  1.77511e-04
 Reference value :  1.77516e-04
 Reference value :  1.77589e-04
 Reference value :  1.77750e-04
 Reference value :  1.77750e-04
 Reference value :  1.77750e-04
 Reference value :  1.77751e-04
 Reference value :  1.77752e-04
 Reference value :  1.77754e-04
 Reference value :  1.77755e-04
 Reference value :  1.77758e-04
 Reference value :  1.77771e-04
 Reference value :  1.77885e-04
 Reference value :  1.78000e-04
 Reference value :  1.78000e-04
 Reference value :  1.78000e-04
 Reference value :  1.78001e-04
 Reference value :  1.78002e-04
 Reference value :  1.78002e-04
 Reference value :  1.78003e-04
 Reference value :  1.78005e-04
 Reference value :  1.78005e-04
 Reference value :  1.78006e-04
 Reference value :  1.78006e-04
 Reference value :  1.78008e-04
 Reference value :  1.78010e-04
 Reference value :  1.78013e-04
 Reference value :  1.78023e-04
 Reference value :  1.78085e-04
 Reference value :  1.78250e-04
 Reference value :  1.78250e-04
 Reference value :  1.78250e-04
 Reference value :  1.78250e-04
 Reference value :  1.78252e-04
 Reference value :  1.78253e-04
 Reference value :  1.78254e-04
 Reference value :  1.78257e-04
 Reference value :  1.78263e-04
 Reference value :  1.78280e-04
 Reference value :  1.78355e-04
No. of Data Rows : 26240
ngspice-44 done
