
Note: Compatibility modes selected: hs a


Circuit: ** sch_path: /home/ece/cace/sar-adc-using-sky130-pdk/runs/run_2025-09-12_02-37-04/parameters/dnl/run_0/sar_output_dnl.sch

option SCALE: Scale is set to 1e-06 for instance and model parameters
option SCALE: Scale is set to 1e-06 for instance and model parameters
option SCALE: Scale is set to 1e-06 for instance and model parameters
option SCALE: Scale is set to 1e-06 for instance and model parameters
Doing analysis at TEMP = 27.000000 and TNOM = 27.000000

Using KLU as Direct Linear Solver
Operating point simulation skipped by 'uic',
  now using transient initial conditions.
 Reference value :  1.00000e-12
 Reference value :  1.02772e-12
 Reference value :  1.08316e-12
 Reference value :  1.19404e-12
 Reference value :  1.33842e-12
 Reference value :  1.62719e-12
 Reference value :  2.20473e-12
 Reference value :  3.03967e-12
 Reference value :  3.94596e-12
 Reference value :  5.16909e-12
 Reference value :  6.92154e-12
 Reference value :  1.02792e-11
 Reference value :  1.42715e-11
 Reference value :  2.10142e-11
 Reference value :  2.79661e-11
 Reference value :  3.70217e-11
 Reference value :  4.86312e-11
 Reference value :  6.51153e-11
 Reference value :  8.57218e-11
 Reference value :  1.00000e-10
 Reference value :  1.01207e-10
 Reference value :  1.03620e-10
 Reference value :  1.08446e-10
 Reference value :  1.18099e-10
 Reference value :  1.37405e-10
 Reference value :  1.76017e-10
 Reference value :  2.53241e-10
 Reference value :  4.05186e-10
 Reference value :  5.66933e-10
 Reference value :  8.32393e-10
 Reference value :  1.18559e-09
 Reference value :  1.59486e-09
 Reference value :  2.27339e-09
 Reference value :  2.96521e-09
 Reference value :  4.01079e-09
 Reference value :  4.93307e-09
 Reference value :  5.89502e-09
 Reference value :  6.78503e-09
 Reference value :  7.93355e-09
 Reference value :  9.15980e-09
 Reference value :  1.14926e-08
 Reference value :  1.54768e-08
 Reference value :  1.94058e-08
 Reference value :  2.19255e-08
 Reference value :  2.48111e-08
 Reference value :  2.73854e-08
 Reference value :  3.02768e-08
 Reference value :  3.38142e-08
 Reference value :  3.79315e-08
 Reference value :  4.11267e-08
 Reference value :  4.46269e-08
 Reference value :  4.82660e-08
 Reference value :  5.25689e-08
 Reference value :  5.65460e-08
 Reference value :  6.31397e-08
 Reference value :  6.99628e-08
 Reference value :  7.69211e-08
 Reference value :  8.46814e-08
 Reference value :  1.00202e-07
 Reference value :  1.27609e-07
 Reference value :  1.81243e-07
 Reference value :  2.50100e-07
 Reference value :  2.50110e-07
 Reference value :  2.50130e-07
 Reference value :  2.50170e-07
 Reference value :  2.50200e-07
 Reference value :  2.50201e-07
 Reference value :  2.50202e-07
 Reference value :  2.50204e-07
 Reference value :  2.50208e-07
 Reference value :  2.50216e-07
 Reference value :  2.50233e-07
 Reference value :  2.50266e-07
 Reference value :  2.50332e-07
 Reference value :  2.50439e-07
 Reference value :  2.50621e-07
 Reference value :  2.50815e-07
 Reference value :  2.51150e-07
 Reference value :  2.51595e-07
 Reference value :  2.52132e-07
 Reference value :  2.52729e-07
 Reference value :  2.53372e-07
 Reference value :  2.54223e-07
 Reference value :  2.55151e-07
 Reference value :  2.56035e-07
 Reference value :  2.56925e-07
 Reference value :  2.57893e-07
 Reference value :  2.58824e-07
 Reference value :  2.60351e-07
 Reference value :  2.62166e-07
 Reference value :  2.64663e-07
 Reference value :  2.68336e-07
 Reference value :  2.73000e-07
 Reference value :  2.82328e-07
 Reference value :  2.99775e-07
 Reference value :  3.28834e-07
 Reference value :  3.86952e-07
 Reference value :  5.00000e-07
 Reference value :  5.00010e-07
 Reference value :  5.00030e-07
 Reference value :  5.00070e-07
 Reference value :  5.00100e-07
 Reference value :  5.00104e-07
 Reference value :  5.00113e-07
 Reference value :  5.00130e-07
 Reference value :  5.00165e-07
 Reference value :  5.00234e-07
 Reference value :  5.00372e-07
 Reference value :  5.00573e-07
 Reference value :  5.00954e-07
 Reference value :  5.01538e-07
 Reference value :  5.02098e-07
 Reference value :  5.02756e-07
 Reference value :  5.03473e-07
 Reference value :  5.04378e-07
 Reference value :  5.05193e-07
 Reference value :  5.06062e-07
 Reference value :  5.07193e-07
 Reference value :  5.08302e-07
 Reference value :  5.10254e-07
 Reference value :  5.12415e-07
 Reference value :  5.14536e-07
 Reference value :  5.16800e-07
 Reference value :  5.19246e-07
 Reference value :  5.21506e-07
 Reference value :  5.24451e-07
 Reference value :  5.29125e-07
 Reference value :  5.36718e-07
 Reference value :  5.47564e-07
 Reference value :  5.69258e-07
 Reference value :  6.04219e-07
 Reference value :  6.73999e-07
 Reference value :  7.50100e-07
 Reference value :  7.50110e-07
 Reference value :  7.50130e-07
 Reference value :  7.50170e-07
 Reference value :  7.50200e-07
 Reference value :  7.50201e-07
 Reference value :  7.50202e-07
 Reference value :  7.50205e-07
 Reference value :  7.50211e-07
 Reference value :  7.50223e-07
 Reference value :  7.50247e-07
 Reference value :  7.50295e-07
 Reference value :  7.50390e-07
 Reference value :  7.50581e-07
 Reference value :  7.50959e-07
 Reference value :  7.51572e-07
 Reference value :  7.52191e-07
 Reference value :  7.52840e-07
 Reference value :  7.53542e-07
 Reference value :  7.54448e-07
 Reference value :  7.55182e-07
 Reference value :  7.56016e-07
 Reference value :  7.56745e-07
 Reference value :  7.57552e-07
 Reference value :  7.58569e-07
 Reference value :  7.59662e-07
 Reference value :  7.60742e-07
 Reference value :  7.62524e-07
 Reference value :  7.64158e-07
 Reference value :  7.67176e-07
 Reference value :  7.70212e-07
 Reference value :  7.74952e-07
 Reference value :  7.83028e-07
 Reference value :  7.93727e-07
 Reference value :  8.12237e-07
 Reference value :  8.44463e-07
 Reference value :  9.01206e-07
 Reference value :  1.00000e-06
 Reference value :  1.00001e-06
 Reference value :  1.00003e-06
 Reference value :  1.00007e-06
 Reference value :  1.00010e-06
 Reference value :  1.00010e-06
 Reference value :  1.00011e-06
 Reference value :  1.00013e-06
 Reference value :  1.00017e-06
 Reference value :  1.00023e-06
 Reference value :  1.00037e-06
 Reference value :  1.00058e-06
 Reference value :  1.00096e-06
 Reference value :  1.00154e-06
 Reference value :  1.00210e-06
 Reference value :  1.00278e-06
 Reference value :  1.00354e-06
 Reference value :  1.00443e-06
 Reference value :  1.00528e-06
 Reference value :  1.00604e-06
 Reference value :  1.00684e-06
 Reference value :  1.00758e-06
 Reference value :  1.00841e-06
 Reference value :  1.00934e-06
 Reference value :  1.01049e-06
 Reference value :  1.01235e-06
 Reference value :  1.01460e-06
 Reference value :  1.01631e-06
 Reference value :  1.01818e-06
 Reference value :  1.02030e-06
 Reference value :  1.02225e-06
 Reference value :  1.02367e-06
 Reference value :  1.02501e-06
 Reference value :  1.02655e-06
 Reference value :  1.02810e-06
 Reference value :  1.02979e-06
 Reference value :  1.03229e-06
 Reference value :  1.03498e-06
 Reference value :  1.04011e-06
 Reference value :  1.04774e-06
 Reference value :  1.06011e-06
 Reference value :  1.08483e-06
 Reference value :  1.12623e-06
 Reference value :  1.20703e-06
 Reference value :  1.25010e-06
 Reference value :  1.25011e-06
 Reference value :  1.25013e-06
 Reference value :  1.25017e-06
 Reference value :  1.25020e-06
 Reference value :  1.25020e-06
 Reference value :  1.25020e-06
 Reference value :  1.25021e-06
 Reference value :  1.25021e-06
 Reference value :  1.25022e-06
 Reference value :  1.25025e-06
 Reference value :  1.25029e-06
 Reference value :  1.25039e-06
 Reference value :  1.25057e-06
 Reference value :  1.25090e-06
 Reference value :  1.25154e-06
 Reference value :  1.25213e-06
 Reference value :  1.25276e-06
 Reference value :  1.25347e-06
 Reference value :  1.25448e-06
 Reference value :  1.25525e-06
 Reference value :  1.25607e-06
 Reference value :  1.25711e-06
 Reference value :  1.25812e-06
 Reference value :  1.25926e-06
 Reference value :  1.26155e-06
 Reference value :  1.26380e-06
 Reference value :  1.26761e-06
 Reference value :  1.27192e-06
 Reference value :  1.28052e-06
 Reference value :  1.29774e-06
 Reference value :  1.32537e-06
 Reference value :  1.38063e-06
 Reference value :  1.49115e-06
 Reference value :  1.50000e-06
 Reference value :  1.50001e-06
 Reference value :  1.50003e-06
 Reference value :  1.50007e-06
 Reference value :  1.50010e-06
 Reference value :  1.50010e-06
 Reference value :  1.50011e-06
 Reference value :  1.50013e-06
 Reference value :  1.50016e-06
 Reference value :  1.50023e-06
 Reference value :  1.50037e-06
 Reference value :  1.50057e-06
 Reference value :  1.50093e-06
 Reference value :  1.50144e-06
 Reference value :  1.50196e-06
 Reference value :  1.50257e-06
 Reference value :  1.50328e-06
 Reference value :  1.50403e-06
 Reference value :  1.50495e-06
 Reference value :  1.50586e-06
 Reference value :  1.50684e-06
 Reference value :  1.50810e-06
 Reference value :  1.50937e-06
 Reference value :  1.51068e-06
 Reference value :  1.51201e-06
 Reference value :  1.51368e-06
 Reference value :  1.51505e-06
 Reference value :  1.51665e-06
 Reference value :  1.51820e-06
 Reference value :  1.51999e-06
 Reference value :  1.52359e-06
 Reference value :  1.52941e-06
 Reference value :  1.53979e-06
 Reference value :  1.56048e-06
 Reference value :  1.60187e-06
 Reference value :  1.68464e-06
 Reference value :  1.75010e-06
 Reference value :  1.75011e-06
 Reference value :  1.75013e-06
 Reference value :  1.75017e-06
 Reference value :  1.75020e-06
 Reference value :  1.75020e-06
 Reference value :  1.75020e-06
 Reference value :  1.75021e-06
 Reference value :  1.75021e-06
 Reference value :  1.75022e-06
 Reference value :  1.75025e-06
 Reference value :  1.75029e-06
 Reference value :  1.75039e-06
 Reference value :  1.75057e-06
 Reference value :  1.75090e-06
 Reference value :  1.75156e-06
 Reference value :  1.75215e-06
 Reference value :  1.75278e-06
 Reference value :  1.75348e-06
 Reference value :  1.75439e-06
 Reference value :  1.75514e-06
 Reference value :  1.75599e-06
 Reference value :  1.75671e-06
 Reference value :  1.75752e-06
 Reference value :  1.75856e-06
 Reference value :  1.75967e-06
 Reference value :  1.76081e-06
 Reference value :  1.76250e-06
 Reference value :  1.76459e-06
 Reference value :  1.76721e-06
 Reference value :  1.77082e-06
 Reference value :  1.77536e-06
 Reference value :  1.78444e-06
 Reference value :  1.79865e-06
 Reference value :  1.82706e-06
 Reference value :  1.88389e-06
 Reference value :  1.99754e-06
 Reference value :  2.00000e-06
 Reference value :  2.00001e-06
 Reference value :  2.00003e-06
 Reference value :  2.00007e-06
 Reference value :  2.00010e-06
 Reference value :  2.00010e-06
 Reference value :  2.00011e-06
 Reference value :  2.00013e-06
 Reference value :  2.00017e-06
 Reference value :  2.00023e-06
 Reference value :  2.00037e-06
 Reference value :  2.00057e-06
 Reference value :  2.00093e-06
 Reference value :  2.00145e-06
 Reference value :  2.00198e-06
 Reference value :  2.00262e-06
 Reference value :  2.00338e-06
 Reference value :  2.00415e-06
 Reference value :  2.00498e-06
 Reference value :  2.00570e-06
 Reference value :  2.00649e-06
 Reference value :  2.00720e-06
 Reference value :  2.00804e-06
 Reference value :  2.00883e-06
 Reference value :  2.00991e-06
 Reference value :  2.01108e-06
 Reference value :  2.01313e-06
 Reference value :  2.01599e-06
 Reference value :  2.01790e-06
 Reference value :  2.02002e-06
 Reference value :  2.02198e-06
 Reference value :  2.02344e-06
 Reference value :  2.02481e-06
 Reference value :  2.02604e-06
 Reference value :  2.02741e-06
 Reference value :  2.02904e-06
 Reference value :  2.03100e-06
 Reference value :  2.03376e-06
 Reference value :  2.03718e-06
 Reference value :  2.04402e-06
 Reference value :  2.05447e-06
 Reference value :  2.06905e-06
 Reference value :  2.09400e-06
 Reference value :  2.12821e-06
 Reference value :  2.16609e-06
 Reference value :  2.21153e-06
 Reference value :  2.25010e-06
 Reference value :  2.25011e-06
 Reference value :  2.25013e-06
 Reference value :  2.25017e-06
 Reference value :  2.25020e-06
 Reference value :  2.25020e-06
 Reference value :  2.25020e-06
 Reference value :  2.25021e-06
 Reference value :  2.25021e-06
 Reference value :  2.25022e-06
 Reference value :  2.25025e-06
 Reference value :  2.25029e-06
 Reference value :  2.25039e-06
 Reference value :  2.25057e-06
 Reference value :  2.25090e-06
 Reference value :  2.25155e-06
 Reference value :  2.25214e-06
 Reference value :  2.25278e-06
 Reference value :  2.25348e-06
 Reference value :  2.25440e-06
 Reference value :  2.25513e-06
 Reference value :  2.25597e-06
 Reference value :  2.25683e-06
 Reference value :  2.25773e-06
 Reference value :  2.25891e-06
 Reference value :  2.26080e-06
 Reference value :  2.26323e-06
 Reference value :  2.26631e-06
 Reference value :  2.27062e-06
 Reference value :  2.27740e-06
 Reference value :  2.29095e-06
 Reference value :  2.31807e-06
 Reference value :  2.37229e-06
 Reference value :  2.42509e-06
 Reference value :  2.48783e-06
 Reference value :  2.50000e-06
 Reference value :  2.50001e-06
 Reference value :  2.50003e-06
 Reference value :  2.50007e-06
 Reference value :  2.50010e-06
 Reference value :  2.50010e-06
 Reference value :  2.50011e-06
 Reference value :  2.50013e-06
 Reference value :  2.50017e-06
 Reference value :  2.50023e-06
 Reference value :  2.50037e-06
 Reference value :  2.50057e-06
 Reference value :  2.50093e-06
 Reference value :  2.50145e-06
 Reference value :  2.50198e-06
 Reference value :  2.50259e-06
 Reference value :  2.50330e-06
 Reference value :  2.50406e-06
 Reference value :  2.50498e-06
 Reference value :  2.50590e-06
 Reference value :  2.50689e-06
 Reference value :  2.50813e-06
 Reference value :  2.50934e-06
 Reference value :  2.51064e-06
 Reference value :  2.51197e-06
 Reference value :  2.51359e-06
 Reference value :  2.51494e-06
 Reference value :  2.51651e-06
 Reference value :  2.51804e-06
 Reference value :  2.51982e-06
 Reference value :  2.52336e-06
 Reference value :  2.52926e-06
 Reference value :  2.53973e-06
 Reference value :  2.56069e-06
 Reference value :  2.60259e-06
 Reference value :  2.68639e-06
 Reference value :  2.75010e-06
 Reference value :  2.75011e-06
 Reference value :  2.75013e-06
 Reference value :  2.75017e-06
 Reference value :  2.75020e-06
 Reference value :  2.75020e-06
 Reference value :  2.75020e-06
 Reference value :  2.75021e-06
 Reference value :  2.75021e-06
 Reference value :  2.75022e-06
 Reference value :  2.75025e-06
 Reference value :  2.75029e-06
 Reference value :  2.75039e-06
 Reference value :  2.75057e-06
 Reference value :  2.75090e-06
 Reference value :  2.75156e-06
 Reference value :  2.75215e-06
 Reference value :  2.75278e-06
 Reference value :  2.75349e-06
 Reference value :  2.75440e-06
 Reference value :  2.75514e-06
 Reference value :  2.75598e-06
 Reference value :  2.75670e-06
 Reference value :  2.75751e-06
 Reference value :  2.75854e-06
 Reference value :  2.75965e-06
 Reference value :  2.76076e-06
 Reference value :  2.76249e-06
 Reference value :  2.76448e-06
 Reference value :  2.76718e-06
 Reference value :  2.77068e-06
 Reference value :  2.77526e-06
 Reference value :  2.78443e-06
 Reference value :  2.79763e-06
 Reference value :  2.82405e-06
 Reference value :  2.87689e-06
 Reference value :  2.98256e-06
 Reference value :  3.00000e-06
 Reference value :  3.00001e-06
 Reference value :  3.00003e-06
 Reference value :  3.00007e-06
 Reference value :  3.00010e-06
 Reference value :  3.00010e-06
 Reference value :  3.00011e-06
 Reference value :  3.00013e-06
 Reference value :  3.00017e-06
 Reference value :  3.00023e-06
 Reference value :  3.00037e-06
 Reference value :  3.00057e-06
 Reference value :  3.00093e-06
 Reference value :  3.00145e-06
 Reference value :  3.00198e-06
 Reference value :  3.00262e-06
 Reference value :  3.00338e-06
 Reference value :  3.00415e-06
 Reference value :  3.00498e-06
 Reference value :  3.00572e-06
 Reference value :  3.00650e-06
 Reference value :  3.00723e-06
 Reference value :  3.00806e-06
 Reference value :  3.00887e-06
 Reference value :  3.00995e-06
 Reference value :  3.01115e-06
 Reference value :  3.01296e-06
 Reference value :  3.01491e-06
 Reference value :  3.01658e-06
 Reference value :  3.01831e-06
 Reference value :  3.02019e-06
 Reference value :  3.02172e-06
 Reference value :  3.02324e-06
 Reference value :  3.02505e-06
 Reference value :  3.02677e-06
 Reference value :  3.02832e-06
 Reference value :  3.03043e-06
 Reference value :  3.03314e-06
 Reference value :  3.03595e-06
 Reference value :  3.04082e-06
 Reference value :  3.04732e-06
 Reference value :  3.05759e-06
 Reference value :  3.07414e-06
 Reference value :  3.09923e-06
 Reference value :  3.12481e-06
 Reference value :  3.15703e-06
 Reference value :  3.18923e-06
 Reference value :  3.22273e-06
 Reference value :  3.25010e-06
 Reference value :  3.25011e-06
 Reference value :  3.25013e-06
 Reference value :  3.25017e-06
 Reference value :  3.25020e-06
 Reference value :  3.25020e-06
 Reference value :  3.25020e-06
 Reference value :  3.25021e-06
 Reference value :  3.25021e-06
 Reference value :  3.25022e-06
 Reference value :  3.25025e-06
 Reference value :  3.25029e-06
 Reference value :  3.25039e-06
 Reference value :  3.25057e-06
 Reference value :  3.25090e-06
 Reference value :  3.25155e-06
 Reference value :  3.25215e-06
 Reference value :  3.25278e-06
 Reference value :  3.25349e-06
 Reference value :  3.25440e-06
 Reference value :  3.25512e-06
 Reference value :  3.25594e-06
 Reference value :  3.25680e-06
 Reference value :  3.25769e-06
 Reference value :  3.25886e-06
 Reference value :  3.26077e-06
 Reference value :  3.26321e-06
 Reference value :  3.26626e-06
 Reference value :  3.27058e-06
 Reference value :  3.27722e-06
 Reference value :  3.29050e-06
 Reference value :  3.31706e-06
 Reference value :  3.35659e-06
 Reference value :  3.39353e-06
 Reference value :  3.44246e-06
 Reference value :  3.49324e-06
 Reference value :  3.50000e-06
 Reference value :  3.50001e-06
 Reference value :  3.50003e-06
 Reference value :  3.50007e-06
 Reference value :  3.50010e-06
 Reference value :  3.50010e-06
 Reference value :  3.50011e-06
 Reference value :  3.50013e-06
 Reference value :  3.50016e-06
 Reference value :  3.50023e-06
 Reference value :  3.50037e-06
 Reference value :  3.50057e-06
 Reference value :  3.50093e-06
 Reference value :  3.50144e-06
 Reference value :  3.50196e-06
 Reference value :  3.50257e-06
 Reference value :  3.50329e-06
 Reference value :  3.50404e-06
 Reference value :  3.50496e-06
 Reference value :  3.50586e-06
 Reference value :  3.50686e-06
 Reference value :  3.50800e-06
 Reference value :  3.50925e-06
 Reference value :  3.51048e-06
 Reference value :  3.51174e-06
 Reference value :  3.51346e-06
 Reference value :  3.51488e-06
 Reference value :  3.51644e-06
 Reference value :  3.51799e-06
 Reference value :  3.51979e-06
 Reference value :  3.52340e-06
 Reference value :  3.52859e-06
 Reference value :  3.53898e-06
 Reference value :  3.55974e-06
 Reference value :  3.60128e-06
 Reference value :  3.68435e-06
 Reference value :  3.75010e-06
 Reference value :  3.75011e-06
 Reference value :  3.75013e-06
 Reference value :  3.75017e-06
 Reference value :  3.75020e-06
 Reference value :  3.75020e-06
 Reference value :  3.75020e-06
 Reference value :  3.75021e-06
 Reference value :  3.75021e-06
 Reference value :  3.75022e-06
 Reference value :  3.75025e-06
 Reference value :  3.75029e-06
 Reference value :  3.75039e-06
 Reference value :  3.75057e-06
 Reference value :  3.75090e-06
 Reference value :  3.75156e-06
 Reference value :  3.75215e-06
 Reference value :  3.75279e-06
 Reference value :  3.75349e-06
 Reference value :  3.75440e-06
 Reference value :  3.75514e-06
 Reference value :  3.75598e-06
 Reference value :  3.75670e-06
 Reference value :  3.75750e-06
 Reference value :  3.75853e-06
 Reference value :  3.75963e-06
 Reference value :  3.76070e-06
 Reference value :  3.76246e-06
 Reference value :  3.76426e-06
 Reference value :  3.76711e-06
 Reference value :  3.77039e-06
 Reference value :  3.77505e-06
 Reference value :  3.78369e-06
 Reference value :  3.79501e-06
 Reference value :  3.81642e-06
 Reference value :  3.85681e-06
 Reference value :  3.92634e-06
 Reference value :  4.00000e-06
 Reference value :  4.00001e-06
 Reference value :  4.00003e-06
 Reference value :  4.00007e-06
 Reference value :  4.00010e-06
 Reference value :  4.00010e-06
 Reference value :  4.00011e-06
 Reference value :  4.00013e-06
 Reference value :  4.00017e-06
 Reference value :  4.00023e-06
 Reference value :  4.00037e-06
 Reference value :  4.00057e-06
 Reference value :  4.00093e-06
 Reference value :  4.00145e-06
 Reference value :  4.00198e-06
 Reference value :  4.00262e-06
 Reference value :  4.00338e-06
 Reference value :  4.00415e-06
 Reference value :  4.00498e-06
 Reference value :  4.00570e-06
 Reference value :  4.00649e-06
 Reference value :  4.00720e-06
 Reference value :  4.00805e-06
 Reference value :  4.00887e-06
 Reference value :  4.00995e-06
 Reference value :  4.01118e-06
 Reference value :  4.01322e-06
 Reference value :  4.01460e-06
 Reference value :  4.01612e-06
 Reference value :  4.01768e-06
 Reference value :  4.01941e-06
 Reference value :  4.02103e-06
 Reference value :  4.02238e-06
 Reference value :  4.02384e-06
 Reference value :  4.02517e-06
 Reference value :  4.02666e-06
 Reference value :  4.02816e-06
 Reference value :  4.02975e-06
 Reference value :  4.03235e-06
 Reference value :  4.03541e-06
 Reference value :  4.04155e-06
 Reference value :  4.04813e-06
 Reference value :  4.05705e-06
 Reference value :  4.06612e-06
 Reference value :  4.07246e-06
 Reference value :  4.07895e-06
 Reference value :  4.08515e-06
 Reference value :  4.09538e-06
 Reference value :  4.10923e-06
 Reference value :  4.13096e-06
 Reference value :  4.15228e-06
 Reference value :  4.17511e-06
 Reference value :  4.20235e-06
 Reference value :  4.23828e-06
 Reference value :  4.25010e-06
 Reference value :  4.25011e-06
 Reference value :  4.25013e-06
 Reference value :  4.25017e-06
 Reference value :  4.25020e-06
 Reference value :  4.25020e-06
 Reference value :  4.25020e-06
 Reference value :  4.25021e-06
 Reference value :  4.25021e-06
 Reference value :  4.25022e-06
 Reference value :  4.25025e-06
 Reference value :  4.25029e-06
 Reference value :  4.25039e-06
 Reference value :  4.25057e-06
 Reference value :  4.25090e-06
 Reference value :  4.25155e-06
 Reference value :  4.25215e-06
 Reference value :  4.25279e-06
 Reference value :  4.25349e-06
 Reference value :  4.25440e-06
 Reference value :  4.25516e-06
 Reference value :  4.25600e-06
 Reference value :  4.25686e-06
 Reference value :  4.25776e-06
 Reference value :  4.25896e-06
 Reference value :  4.26084e-06
 Reference value :  4.26325e-06
 Reference value :  4.26639e-06
 Reference value :  4.27069e-06
 Reference value :  4.27746e-06
 Reference value :  4.29099e-06
 Reference value :  4.31750e-06
 Reference value :  4.37052e-06
 Reference value :  4.47657e-06
 Reference value :  4.50000e-06
 Reference value :  4.50001e-06
 Reference value :  4.50003e-06
 Reference value :  4.50007e-06
 Reference value :  4.50010e-06
 Reference value :  4.50010e-06
 Reference value :  4.50011e-06
 Reference value :  4.50013e-06
 Reference value :  4.50016e-06
 Reference value :  4.50023e-06
 Reference value :  4.50037e-06
 Reference value :  4.50057e-06
 Reference value :  4.50093e-06
 Reference value :  4.50143e-06
 Reference value :  4.50196e-06
 Reference value :  4.50260e-06
 Reference value :  4.50337e-06
 Reference value :  4.50412e-06
 Reference value :  4.50493e-06
 Reference value :  4.50583e-06
 Reference value :  4.50675e-06
 Reference value :  4.50786e-06
 Reference value :  4.50905e-06
 Reference value :  4.51021e-06
 Reference value :  4.51143e-06
 Reference value :  4.51309e-06
 Reference value :  4.51449e-06
 Reference value :  4.51600e-06
 Reference value :  4.51755e-06
 Reference value :  4.51934e-06
 Reference value :  4.52277e-06
 Reference value :  4.52779e-06
 Reference value :  4.53783e-06
 Reference value :  4.55792e-06
 Reference value :  4.59809e-06
 Reference value :  4.67843e-06
 Reference value :  4.75010e-06
 Reference value :  4.75011e-06
 Reference value :  4.75013e-06
 Reference value :  4.75017e-06
 Reference value :  4.75020e-06
 Reference value :  4.75020e-06
 Reference value :  4.75020e-06
 Reference value :  4.75021e-06
 Reference value :  4.75021e-06
 Reference value :  4.75022e-06
 Reference value :  4.75025e-06
 Reference value :  4.75029e-06
 Reference value :  4.75039e-06
 Reference value :  4.75057e-06
 Reference value :  4.75090e-06
 Reference value :  4.75155e-06
 Reference value :  4.75215e-06
 Reference value :  4.75278e-06
 Reference value :  4.75348e-06
 Reference value :  4.75440e-06
 Reference value :  4.75515e-06
 Reference value :  4.75598e-06
 Reference value :  4.75671e-06
 Reference value :  4.75751e-06
 Reference value :  4.75855e-06
 Reference value :  4.75965e-06
 Reference value :  4.76186e-06
 Reference value :  4.76418e-06
 Reference value :  4.76826e-06
 Reference value :  4.77263e-06
 Reference value :  4.78139e-06
 Reference value :  4.79889e-06
 Reference value :  4.83390e-06
 Reference value :  4.90392e-06
 Reference value :  5.00000e-06
 Reference value :  5.00001e-06
 Reference value :  5.00003e-06
 Reference value :  5.00007e-06
 Reference value :  5.00010e-06
 Reference value :  5.00010e-06
 Reference value :  5.00011e-06
 Reference value :  5.00013e-06
 Reference value :  5.00016e-06
 Reference value :  5.00023e-06
 Reference value :  5.00037e-06
 Reference value :  5.00057e-06
 Reference value :  5.00093e-06
 Reference value :  5.00143e-06
 Reference value :  5.00196e-06
 Reference value :  5.00260e-06
 Reference value :  5.00336e-06
 Reference value :  5.00412e-06
 Reference value :  5.00497e-06
 Reference value :  5.00572e-06
 Reference value :  5.00653e-06
 Reference value :  5.00734e-06
 Reference value :  5.00833e-06
 Reference value :  5.00924e-06
 Reference value :  5.01050e-06
 Reference value :  5.01208e-06
 Reference value :  5.01443e-06
 Reference value :  5.01784e-06
 Reference value :  5.02020e-06
 Reference value :  5.02227e-06
 Reference value :  5.02424e-06
 Reference value :  5.02618e-06
 Reference value :  5.02806e-06
 Reference value :  5.03034e-06
 Reference value :  5.03250e-06
 Reference value :  5.03545e-06
 Reference value :  5.03888e-06
 Reference value :  5.04398e-06
 Reference value :  5.05131e-06
 Reference value :  5.06227e-06
 Reference value :  5.07609e-06
 Reference value :  5.09143e-06
 Reference value :  5.11570e-06
 Reference value :  5.14207e-06
 Reference value :  5.19141e-06
 Reference value :  5.25010e-06
 Reference value :  5.25011e-06
 Reference value :  5.25013e-06
 Reference value :  5.25017e-06
 Reference value :  5.25020e-06
 Reference value :  5.25020e-06
 Reference value :  5.25020e-06
 Reference value :  5.25021e-06
 Reference value :  5.25021e-06
 Reference value :  5.25022e-06
 Reference value :  5.25025e-06
 Reference value :  5.25029e-06
 Reference value :  5.25039e-06
 Reference value :  5.25058e-06
 Reference value :  5.25091e-06
 Reference value :  5.25158e-06
 Reference value :  5.25218e-06
 Reference value :  5.25283e-06
 Reference value :  5.25353e-06
 Reference value :  5.25443e-06
 Reference value :  5.25517e-06
 Reference value :  5.25600e-06
 Reference value :  5.25685e-06
 Reference value :  5.25774e-06
 Reference value :  5.25893e-06
 Reference value :  5.26078e-06
 Reference value :  5.26321e-06
 Reference value :  5.26630e-06
 Reference value :  5.27060e-06
 Reference value :  5.27731e-06
 Reference value :  5.29073e-06
 Reference value :  5.31661e-06
 Reference value :  5.36835e-06
 Reference value :  5.47184e-06
 Reference value :  5.50000e-06
 Reference value :  5.50001e-06
 Reference value :  5.50003e-06
 Reference value :  5.50007e-06
 Reference value :  5.50010e-06
 Reference value :  5.50010e-06
 Reference value :  5.50011e-06
 Reference value :  5.50013e-06
 Reference value :  5.50016e-06
 Reference value :  5.50023e-06
 Reference value :  5.50037e-06
 Reference value :  5.50057e-06
 Reference value :  5.50093e-06
 Reference value :  5.50143e-06
 Reference value :  5.50196e-06
 Reference value :  5.50260e-06
 Reference value :  5.50337e-06
 Reference value :  5.50412e-06
 Reference value :  5.50495e-06
 Reference value :  5.50594e-06
 Reference value :  5.50685e-06
 Reference value :  5.50811e-06
 Reference value :  5.50918e-06
 Reference value :  5.51052e-06
 Reference value :  5.51187e-06
 Reference value :  5.51337e-06
 Reference value :  5.51509e-06
 Reference value :  5.51666e-06
 Reference value :  5.51889e-06
 Reference value :  5.52120e-06
 Reference value :  5.52520e-06
 Reference value :  5.53117e-06
 Reference value :  5.54123e-06
 Reference value :  5.55976e-06
 Reference value :  5.59171e-06
 Reference value :  5.65173e-06
 Reference value :  5.75010e-06
 Reference value :  5.75011e-06
 Reference value :  5.75013e-06
 Reference value :  5.75017e-06
 Reference value :  5.75020e-06
 Reference value :  5.75020e-06
 Reference value :  5.75020e-06
 Reference value :  5.75021e-06
 Reference value :  5.75021e-06
 Reference value :  5.75022e-06
 Reference value :  5.75025e-06
 Reference value :  5.75029e-06
 Reference value :  5.75039e-06
 Reference value :  5.75057e-06
 Reference value :  5.75090e-06
 Reference value :  5.75156e-06
 Reference value :  5.75216e-06
 Reference value :  5.75279e-06
 Reference value :  5.75350e-06
 Reference value :  5.75441e-06
 Reference value :  5.75514e-06
 Reference value :  5.75598e-06
 Reference value :  5.75670e-06
 Reference value :  5.75750e-06
 Reference value :  5.75853e-06
 Reference value :  5.75963e-06
 Reference value :  5.76182e-06
 Reference value :  5.76414e-06
 Reference value :  5.76820e-06
 Reference value :  5.77256e-06
 Reference value :  5.78127e-06
 Reference value :  5.79869e-06
 Reference value :  5.83353e-06
 Reference value :  5.90322e-06
 Reference value :  6.00000e-06
 Reference value :  6.00001e-06
 Reference value :  6.00003e-06
 Reference value :  6.00007e-06
 Reference value :  6.00010e-06
 Reference value :  6.00010e-06
 Reference value :  6.00011e-06
 Reference value :  6.00013e-06
 Reference value :  6.00016e-06
 Reference value :  6.00023e-06
 Reference value :  6.00037e-06
 Reference value :  6.00057e-06
 Reference value :  6.00093e-06
 Reference value :  6.00143e-06
 Reference value :  6.00196e-06
 Reference value :  6.00260e-06
 Reference value :  6.00337e-06
 Reference value :  6.00412e-06
 Reference value :  6.00497e-06
 Reference value :  6.00575e-06
 Reference value :  6.00655e-06
 Reference value :  6.00731e-06
 Reference value :  6.00820e-06
 Reference value :  6.00910e-06
 Reference value :  6.01026e-06
 Reference value :  6.01205e-06
 Reference value :  6.01418e-06
 Reference value :  6.01683e-06
 Reference value :  6.01900e-06
 Reference value :  6.02133e-06
 Reference value :  6.02301e-06
 Reference value :  6.02459e-06
 Reference value :  6.02590e-06
 Reference value :  6.02741e-06
 Reference value :  6.02916e-06
 Reference value :  6.03122e-06
 Reference value :  6.03392e-06
 Reference value :  6.03744e-06
 Reference value :  6.04400e-06
 Reference value :  6.05209e-06
 Reference value :  6.06063e-06
 Reference value :  6.07153e-06
 Reference value :  6.08939e-06
 Reference value :  6.11229e-06
 Reference value :  6.15808e-06
 Reference value :  6.23378e-06
 Reference value :  6.25010e-06
 Reference value :  6.25011e-06
 Reference value :  6.25013e-06
 Reference value :  6.25017e-06
 Reference value :  6.25020e-06
 Reference value :  6.25020e-06
 Reference value :  6.25020e-06
 Reference value :  6.25021e-06
 Reference value :  6.25021e-06
 Reference value :  6.25022e-06
 Reference value :  6.25025e-06
 Reference value :  6.25029e-06
 Reference value :  6.25039e-06
 Reference value :  6.25057e-06
 Reference value :  6.25090e-06
 Reference value :  6.25155e-06
 Reference value :  6.25216e-06
 Reference value :  6.25279e-06
 Reference value :  6.25350e-06
 Reference value :  6.25441e-06
 Reference value :  6.25516e-06
 Reference value :  6.25601e-06
 Reference value :  6.25686e-06
 Reference value :  6.25776e-06
 Reference value :  6.25897e-06
 Reference value :  6.26084e-06
 Reference value :  6.26326e-06
 Reference value :  6.26639e-06
 Reference value :  6.27070e-06
 Reference value :  6.27763e-06
 Reference value :  6.29149e-06
 Reference value :  6.31781e-06
 Reference value :  6.37046e-06
 Reference value :  6.47575e-06
 Reference value :  6.50000e-06
 Reference value :  6.50001e-06
 Reference value :  6.50003e-06
 Reference value :  6.50007e-06
 Reference value :  6.50010e-06
 Reference value :  6.50010e-06
 Reference value :  6.50011e-06
 Reference value :  6.50013e-06
 Reference value :  6.50016e-06
 Reference value :  6.50023e-06
 Reference value :  6.50037e-06
 Reference value :  6.50057e-06
 Reference value :  6.50093e-06
 Reference value :  6.50143e-06
 Reference value :  6.50196e-06
 Reference value :  6.50260e-06
 Reference value :  6.50337e-06
 Reference value :  6.50412e-06
 Reference value :  6.50492e-06
 Reference value :  6.50581e-06
 Reference value :  6.50675e-06
 Reference value :  6.50783e-06
 Reference value :  6.50921e-06
 Reference value :  6.51040e-06
 Reference value :  6.51167e-06
 Reference value :  6.51352e-06
 Reference value :  6.51522e-06
 Reference value :  6.51687e-06
 Reference value :  6.51887e-06
 Reference value :  6.52107e-06
 Reference value :  6.52467e-06
 Reference value :  6.52996e-06
 Reference value :  6.53911e-06
 Reference value :  6.55555e-06
 Reference value :  6.58458e-06
 Reference value :  6.63925e-06
 Reference value :  6.73943e-06
 Reference value :  6.75010e-06
 Reference value :  6.75011e-06
 Reference value :  6.75013e-06
 Reference value :  6.75017e-06
 Reference value :  6.75020e-06
 Reference value :  6.75020e-06
 Reference value :  6.75020e-06
 Reference value :  6.75021e-06
 Reference value :  6.75021e-06
 Reference value :  6.75022e-06
 Reference value :  6.75025e-06
 Reference value :  6.75029e-06
 Reference value :  6.75039e-06
 Reference value :  6.75058e-06
 Reference value :  6.75091e-06
 Reference value :  6.75158e-06
 Reference value :  6.75219e-06
 Reference value :  6.75283e-06
 Reference value :  6.75353e-06
 Reference value :  6.75443e-06
 Reference value :  6.75514e-06
 Reference value :  6.75595e-06
 Reference value :  6.75667e-06
 Reference value :  6.75746e-06
 Reference value :  6.75847e-06
 Reference value :  6.75955e-06
 Reference value :  6.76171e-06
 Reference value :  6.76400e-06
 Reference value :  6.76801e-06
 Reference value :  6.77230e-06
 Reference value :  6.78088e-06
 Reference value :  6.79803e-06
 Reference value :  6.83235e-06
 Reference value :  6.90097e-06
 Reference value :  7.00000e-06
 Reference value :  7.00001e-06
 Reference value :  7.00003e-06
 Reference value :  7.00007e-06
 Reference value :  7.00010e-06
 Reference value :  7.00010e-06
 Reference value :  7.00011e-06
 Reference value :  7.00013e-06
 Reference value :  7.00016e-06
 Reference value :  7.00023e-06
 Reference value :  7.00037e-06
 Reference value :  7.00057e-06
 Reference value :  7.00093e-06
 Reference value :  7.00143e-06
 Reference value :  7.00196e-06
 Reference value :  7.00260e-06
 Reference value :  7.00336e-06
 Reference value :  7.00412e-06
 Reference value :  7.00497e-06
 Reference value :  7.00572e-06
 Reference value :  7.00653e-06
 Reference value :  7.00731e-06
 Reference value :  7.00826e-06
 Reference value :  7.00915e-06
 Reference value :  7.01037e-06
 Reference value :  7.01200e-06
 Reference value :  7.01424e-06
 Reference value :  7.01717e-06
 Reference value :  7.01947e-06
 Reference value :  7.02190e-06
 Reference value :  7.02367e-06
 Reference value :  7.02530e-06
 Reference value :  7.02680e-06
 Reference value :  7.02838e-06
 Reference value :  7.03019e-06
 Reference value :  7.03272e-06
 Reference value :  7.03538e-06
 Reference value :  7.04008e-06
 Reference value :  7.04437e-06
 Reference value :  7.05194e-06
 Reference value :  7.06099e-06
 Reference value :  7.07845e-06
 Reference value :  7.10389e-06
 Reference value :  7.15477e-06
 Reference value :  7.25010e-06
 Reference value :  7.25011e-06
 Reference value :  7.25013e-06
 Reference value :  7.25017e-06
 Reference value :  7.25020e-06
 Reference value :  7.25020e-06
 Reference value :  7.25020e-06
 Reference value :  7.25021e-06
 Reference value :  7.25021e-06
 Reference value :  7.25022e-06
 Reference value :  7.25025e-06
 Reference value :  7.25029e-06
 Reference value :  7.25039e-06
 Reference value :  7.25057e-06
 Reference value :  7.25091e-06
 Reference value :  7.25156e-06
 Reference value :  7.25217e-06
 Reference value :  7.25281e-06
 Reference value :  7.25351e-06
 Reference value :  7.25441e-06
 Reference value :  7.25513e-06
 Reference value :  7.25594e-06
 Reference value :  7.25680e-06
 Reference value :  7.25769e-06
 Reference value :  7.25886e-06
 Reference value :  7.26077e-06
 Reference value :  7.26321e-06
 Reference value :  7.26627e-06
 Reference value :  7.27057e-06
 Reference value :  7.27721e-06
 Reference value :  7.29047e-06
 Reference value :  7.31700e-06
 Reference value :  7.37005e-06
 Reference value :  7.47616e-06
 Reference value :  7.50000e-06
 Reference value :  7.50001e-06
 Reference value :  7.50003e-06
 Reference value :  7.50007e-06
 Reference value :  7.50010e-06
 Reference value :  7.50010e-06
 Reference value :  7.50011e-06
 Reference value :  7.50013e-06
 Reference value :  7.50016e-06
 Reference value :  7.50023e-06
 Reference value :  7.50037e-06
 Reference value :  7.50056e-06
 Reference value :  7.50092e-06
 Reference value :  7.50145e-06
 Reference value :  7.50199e-06
 Reference value :  7.50265e-06
 Reference value :  7.50341e-06
 Reference value :  7.50418e-06
 Reference value :  7.50497e-06
 Reference value :  7.50594e-06
 Reference value :  7.50684e-06
 Reference value :  7.50804e-06
 Reference value :  7.50928e-06
 Reference value :  7.51052e-06
 Reference value :  7.51180e-06
 Reference value :  7.51346e-06
 Reference value :  7.51490e-06
 Reference value :  7.51643e-06
 Reference value :  7.51806e-06
 Reference value :  7.51992e-06
 Reference value :  7.52331e-06
 Reference value :  7.52825e-06
 Reference value :  7.53813e-06
 Reference value :  7.55704e-06
 Reference value :  7.59355e-06
 Reference value :  7.66658e-06
 Reference value :  7.75010e-06
 Reference value :  7.75011e-06
 Reference value :  7.75013e-06
 Reference value :  7.75017e-06
 Reference value :  7.75020e-06
 Reference value :  7.75020e-06
 Reference value :  7.75020e-06
 Reference value :  7.75021e-06
 Reference value :  7.75021e-06
 Reference value :  7.75022e-06
 Reference value :  7.75025e-06
 Reference value :  7.75029e-06
 Reference value :  7.75039e-06
 Reference value :  7.75057e-06
 Reference value :  7.75091e-06
 Reference value :  7.75157e-06
 Reference value :  7.75217e-06
 Reference value :  7.75282e-06
 Reference value :  7.75352e-06
 Reference value :  7.75442e-06
 Reference value :  7.75512e-06
 Reference value :  7.75591e-06
 Reference value :  7.75663e-06
 Reference value :  7.75741e-06
 Reference value :  7.75844e-06
 Reference value :  7.75953e-06
 Reference value :  7.76171e-06
 Reference value :  7.76402e-06
 Reference value :  7.76804e-06
 Reference value :  7.77236e-06
 Reference value :  7.78099e-06
 Reference value :  7.79825e-06
 Reference value :  7.83277e-06
 Reference value :  7.90182e-06
 Reference value :  8.00000e-06
 Reference value :  8.00001e-06
 Reference value :  8.00003e-06
 Reference value :  8.00007e-06
 Reference value :  8.00010e-06
 Reference value :  8.00010e-06
 Reference value :  8.00011e-06
 Reference value :  8.00013e-06
 Reference value :  8.00016e-06
 Reference value :  8.00023e-06
 Reference value :  8.00037e-06
 Reference value :  8.00056e-06
 Reference value :  8.00092e-06
 Reference value :  8.00145e-06
 Reference value :  8.00199e-06
 Reference value :  8.00265e-06
 Reference value :  8.00341e-06
 Reference value :  8.00418e-06
 Reference value :  8.00505e-06
 Reference value :  8.00587e-06
 Reference value :  8.00666e-06
 Reference value :  8.00742e-06
 Reference value :  8.00831e-06
 Reference value :  8.00922e-06
 Reference value :  8.01040e-06
 Reference value :  8.01220e-06
 Reference value :  8.01438e-06
 Reference value :  8.01717e-06
 Reference value :  8.01983e-06
 Reference value :  8.02252e-06
 Reference value :  8.02523e-06
 Reference value :  8.02812e-06
 Reference value :  8.03391e-06
 Reference value :  8.04246e-06
 Reference value :  8.05443e-06
 Reference value :  8.07670e-06
 Reference value :  8.12124e-06
 Reference value :  8.21031e-06
 Reference value :  8.25010e-06
 Reference value :  8.25011e-06
 Reference value :  8.25013e-06
 Reference value :  8.25017e-06
 Reference value :  8.25020e-06
 Reference value :  8.25020e-06
 Reference value :  8.25020e-06
 Reference value :  8.25021e-06
 Reference value :  8.25021e-06
 Reference value :  8.25022e-06
 Reference value :  8.25025e-06
 Reference value :  8.25029e-06
 Reference value :  8.25039e-06
 Reference value :  8.25057e-06
 Reference value :  8.25095e-06
 Reference value :  8.25158e-06
 Reference value :  8.25221e-06
 Reference value :  8.25286e-06
 Reference value :  8.25356e-06
 Reference value :  8.25444e-06
 Reference value :  8.25540e-06
 Reference value :  8.25662e-06
 Reference value :  8.25791e-06
 Reference value :  8.25938e-06
 Reference value :  8.26204e-06
 Reference value :  8.26458e-06
 Reference value :  8.26859e-06
 Reference value :  8.27333e-06
 Reference value :  8.28281e-06
 Reference value :  8.30177e-06
 Reference value :  8.33968e-06
 Reference value :  8.41552e-06
 Reference value :  8.50000e-06
 Reference value :  8.50000e-06
 Reference value :  8.50000e-06
 Reference value :  8.50000e-06
 Reference value :  8.50000e-06
 Reference value :  8.50000e-06
 Reference value :  8.50000e-06
 Reference value :  8.50000e-06
 Reference value :  8.50001e-06
 Reference value :  8.50001e-06
 Reference value :  8.50002e-06
 Reference value :  8.50004e-06
 Reference value :  8.50008e-06
 Reference value :  8.50010e-06
 Reference value :  8.50010e-06
 Reference value :  8.50011e-06
 Reference value :  8.50012e-06
 Reference value :  8.50014e-06
 Reference value :  8.50018e-06
 Reference value :  8.50026e-06
 Reference value :  8.50042e-06
 Reference value :  8.50074e-06
 Reference value :  8.50127e-06
 Reference value :  8.50184e-06
 Reference value :  8.50268e-06
 Reference value :  8.50347e-06
 Reference value :  8.50424e-06
 Reference value :  8.50514e-06
 Reference value :  8.50596e-06
 Reference value :  8.50716e-06
 Reference value :  8.50872e-06
 Reference value :  8.51040e-06
 Reference value :  8.51199e-06
 Reference value :  8.51370e-06
 Reference value :  8.51557e-06
 Reference value :  8.51859e-06
 Reference value :  8.52179e-06
 Reference value :  8.52820e-06
 Reference value :  8.53473e-06
 Reference value :  8.53931e-06
 Reference value :  8.54311e-06
 Reference value :  8.54629e-06
 Reference value :  8.54942e-06
 Reference value :  8.55167e-06
 Reference value :  8.55356e-06
 Reference value :  8.55548e-06
 Reference value :  8.55780e-06
 Reference value :  8.56010e-06
 Reference value :  8.56146e-06
 Reference value :  8.56355e-06
 Reference value :  8.56631e-06
 Reference value :  8.56862e-06
 Reference value :  8.57123e-06
 Reference value :  8.57389e-06
 Reference value :  8.57702e-06
 Reference value :  8.58327e-06
 Reference value :  8.58917e-06
 Reference value :  8.59820e-06
 Reference value :  8.60666e-06
 Reference value :  8.61331e-06
 Reference value :  8.61880e-06
 Reference value :  8.62366e-06
 Reference value :  8.62873e-06
 Reference value :  8.63459e-06
 Reference value :  8.64139e-06
 Reference value :  8.64811e-06
 Reference value :  8.65502e-06
 Reference value :  8.66304e-06
 Reference value :  8.67908e-06
 Reference value :  8.69828e-06
 Reference value :  8.73134e-06
 Reference value :  8.75010e-06
 Reference value :  8.75011e-06
 Reference value :  8.75013e-06
 Reference value :  8.75017e-06
 Reference value :  8.75020e-06
 Reference value :  8.75020e-06
 Reference value :  8.75020e-06
 Reference value :  8.75021e-06
 Reference value :  8.75021e-06
 Reference value :  8.75022e-06
 Reference value :  8.75025e-06
 Reference value :  8.75029e-06
 Reference value :  8.75039e-06
 Reference value :  8.75057e-06
 Reference value :  8.75095e-06
 Reference value :  8.75162e-06
 Reference value :  8.75223e-06
 Reference value :  8.75289e-06
 Reference value :  8.75359e-06
 Reference value :  8.75448e-06
 Reference value :  8.75516e-06
 Reference value :  8.75593e-06
 Reference value :  8.75689e-06
 Reference value :  8.75779e-06
 Reference value :  8.75895e-06
 Reference value :  8.76122e-06
 Reference value :  8.76361e-06
 Reference value :  8.76694e-06
 Reference value :  8.77128e-06
 Reference value :  8.77958e-06
 Reference value :  8.79619e-06
 Reference value :  8.82690e-06
 Reference value :  8.88832e-06
 Reference value :  9.00000e-06
 Reference value :  9.00001e-06
 Reference value :  9.00003e-06
 Reference value :  9.00007e-06
 Reference value :  9.00010e-06
 Reference value :  9.00010e-06
 Reference value :  9.00011e-06
 Reference value :  9.00013e-06
 Reference value :  9.00017e-06
 Reference value :  9.00023e-06
 Reference value :  9.00037e-06
 Reference value :  9.00058e-06
 Reference value :  9.00096e-06
 Reference value :  9.00154e-06
 Reference value :  9.00211e-06
 Reference value :  9.00277e-06
 Reference value :  9.00349e-06
 Reference value :  9.00427e-06
 Reference value :  9.00510e-06
 Reference value :  9.00590e-06
 Reference value :  9.00701e-06
 Reference value :  9.00804e-06
 Reference value :  9.00996e-06
 Reference value :  9.01209e-06
 Reference value :  9.01443e-06
 Reference value :  9.01672e-06
 Reference value :  9.01891e-06
 Reference value :  9.02167e-06
 Reference value :  9.02428e-06
 Reference value :  9.02942e-06
 Reference value :  9.03628e-06
 Reference value :  9.04793e-06
 Reference value :  9.06872e-06
 Reference value :  9.10137e-06
 Reference value :  9.16064e-06
 Reference value :  9.25010e-06
 Reference value :  9.25011e-06
 Reference value :  9.25013e-06
 Reference value :  9.25017e-06
 Reference value :  9.25020e-06
 Reference value :  9.25020e-06
 Reference value :  9.25020e-06
 Reference value :  9.25021e-06
 Reference value :  9.25021e-06
 Reference value :  9.25022e-06
 Reference value :  9.25025e-06
 Reference value :  9.25029e-06
 Reference value :  9.25039e-06
 Reference value :  9.25058e-06
 Reference value :  9.25096e-06
 Reference value :  9.25157e-06
 Reference value :  9.25219e-06
 Reference value :  9.25284e-06
 Reference value :  9.25354e-06
 Reference value :  9.25445e-06
 Reference value :  9.25517e-06
 Reference value :  9.25600e-06
 Reference value :  9.25673e-06
 Reference value :  9.25752e-06
 Reference value :  9.25856e-06
 Reference value :  9.25965e-06
 Reference value :  9.26067e-06
 Reference value :  9.26209e-06
 Reference value :  9.26358e-06
 Reference value :  9.26605e-06
 Reference value :  9.26900e-06
 Reference value :  9.27315e-06
 Reference value :  9.27953e-06
 Reference value :  9.28826e-06
 Reference value :  9.30168e-06
 Reference value :  9.32114e-06
 Reference value :  9.35004e-06
 Reference value :  9.40071e-06
 Reference value :  9.49592e-06
 Reference value :  9.50000e-06
 Reference value :  9.50001e-06
 Reference value :  9.50003e-06
 Reference value :  9.50007e-06
 Reference value :  9.50010e-06
 Reference value :  9.50010e-06
 Reference value :  9.50011e-06
 Reference value :  9.50013e-06
 Reference value :  9.50017e-06
 Reference value :  9.50023e-06
 Reference value :  9.50037e-06
 Reference value :  9.50058e-06
 Reference value :  9.50096e-06
 Reference value :  9.50154e-06
 Reference value :  9.50210e-06
 Reference value :  9.50277e-06
 Reference value :  9.50354e-06
 Reference value :  9.50442e-06
 Reference value :  9.50527e-06
 Reference value :  9.50613e-06
 Reference value :  9.50689e-06
 Reference value :  9.50763e-06
 Reference value :  9.50847e-06
 Reference value :  9.50942e-06
 Reference value :  9.51058e-06
 Reference value :  9.51247e-06
 Reference value :  9.51485e-06
 Reference value :  9.51655e-06
 Reference value :  9.51844e-06
 Reference value :  9.52038e-06
 Reference value :  9.52198e-06
 Reference value :  9.52322e-06
 Reference value :  9.52441e-06
 Reference value :  9.52556e-06
 Reference value :  9.52681e-06
 Reference value :  9.52836e-06
 Reference value :  9.53017e-06
 Reference value :  9.53282e-06
 Reference value :  9.53609e-06
 Reference value :  9.54262e-06
 Reference value :  9.55478e-06
 Reference value :  9.57470e-06
 Reference value :  9.60670e-06
 Reference value :  9.66614e-06
 Reference value :  9.73497e-06
 Reference value :  9.75010e-06
 Reference value :  9.75011e-06
 Reference value :  9.75013e-06
 Reference value :  9.75017e-06
 Reference value :  9.75020e-06
 Reference value :  9.75020e-06
 Reference value :  9.75020e-06
 Reference value :  9.75021e-06
 Reference value :  9.75021e-06
 Reference value :  9.75022e-06
 Reference value :  9.75025e-06
 Reference value :  9.75029e-06
 Reference value :  9.75039e-06
 Reference value :  9.75058e-06
 Reference value :  9.75091e-06
 Reference value :  9.75156e-06
 Reference value :  9.75215e-06
 Reference value :  9.75279e-06
 Reference value :  9.75350e-06
 Reference value :  9.75439e-06
 Reference value :  9.75513e-06
 Reference value :  9.75596e-06
 Reference value :  9.75682e-06
 Reference value :  9.75771e-06
 Reference value :  9.75889e-06
 Reference value :  9.76074e-06
 Reference value :  9.76320e-06
 Reference value :  9.76624e-06
 Reference value :  9.77056e-06
 Reference value :  9.77714e-06
 Reference value :  9.79031e-06
 Reference value :  9.81663e-06
 Reference value :  9.86928e-06
 Reference value :  9.97457e-06
 Reference value :  1.00000e-05
 Reference value :  1.00000e-05
 Reference value :  1.00000e-05
 Reference value :  1.00001e-05
 Reference value :  1.00001e-05
 Reference value :  1.00001e-05
 Reference value :  1.00001e-05
 Reference value :  1.00001e-05
 Reference value :  1.00002e-05
 Reference value :  1.00002e-05
 Reference value :  1.00004e-05
 Reference value :  1.00006e-05
 Reference value :  1.00009e-05
 Reference value :  1.00014e-05
 Reference value :  1.00020e-05
 Reference value :  1.00026e-05
 Reference value :  1.00033e-05
 Reference value :  1.00040e-05
 Reference value :  1.00050e-05
 Reference value :  1.00059e-05
 Reference value :  1.00068e-05
 Reference value :  1.00081e-05
 Reference value :  1.00094e-05
 Reference value :  1.00107e-05
 Reference value :  1.00120e-05
 Reference value :  1.00137e-05
 Reference value :  1.00151e-05
 Reference value :  1.00166e-05
 Reference value :  1.00182e-05
 Reference value :  1.00200e-05
 Reference value :  1.00236e-05
 Reference value :  1.00293e-05
 Reference value :  1.00397e-05
 Reference value :  1.00601e-05
 Reference value :  1.01009e-05
 Reference value :  1.01826e-05
 Reference value :  1.02501e-05
 Reference value :  1.02501e-05
 Reference value :  1.02501e-05
 Reference value :  1.02502e-05
 Reference value :  1.02502e-05
 Reference value :  1.02502e-05
 Reference value :  1.02502e-05
 Reference value :  1.02502e-05
 Reference value :  1.02502e-05
 Reference value :  1.02502e-05
 Reference value :  1.02502e-05
 Reference value :  1.02503e-05
 Reference value :  1.02504e-05
 Reference value :  1.02506e-05
 Reference value :  1.02509e-05
 Reference value :  1.02516e-05
 Reference value :  1.02521e-05
 Reference value :  1.02528e-05
 Reference value :  1.02535e-05
 Reference value :  1.02544e-05
 Reference value :  1.02551e-05
 Reference value :  1.02560e-05
 Reference value :  1.02567e-05
 Reference value :  1.02575e-05
 Reference value :  1.02586e-05
 Reference value :  1.02597e-05
 Reference value :  1.02608e-05
 Reference value :  1.02625e-05
 Reference value :  1.02646e-05
 Reference value :  1.02672e-05
 Reference value :  1.02708e-05
 Reference value :  1.02753e-05
 Reference value :  1.02844e-05
 Reference value :  1.02984e-05
 Reference value :  1.03266e-05
 Reference value :  1.03828e-05
 Reference value :  1.04953e-05
 Reference value :  1.05000e-05
 Reference value :  1.05000e-05
 Reference value :  1.05000e-05
 Reference value :  1.05001e-05
 Reference value :  1.05001e-05
 Reference value :  1.05001e-05
 Reference value :  1.05001e-05
 Reference value :  1.05001e-05
 Reference value :  1.05002e-05
 Reference value :  1.05002e-05
 Reference value :  1.05004e-05
 Reference value :  1.05006e-05
 Reference value :  1.05009e-05
 Reference value :  1.05014e-05
 Reference value :  1.05020e-05
 Reference value :  1.05026e-05
 Reference value :  1.05034e-05
 Reference value :  1.05041e-05
 Reference value :  1.05050e-05
 Reference value :  1.05057e-05
 Reference value :  1.05065e-05
 Reference value :  1.05072e-05
 Reference value :  1.05080e-05
 Reference value :  1.05088e-05
 Reference value :  1.05099e-05
 Reference value :  1.05111e-05
 Reference value :  1.05131e-05
 Reference value :  1.05160e-05
 Reference value :  1.05179e-05
 Reference value :  1.05200e-05
 Reference value :  1.05220e-05
 Reference value :  1.05234e-05
 Reference value :  1.05248e-05
 Reference value :  1.05260e-05
 Reference value :  1.05274e-05
 Reference value :  1.05290e-05
 Reference value :  1.05310e-05
 Reference value :  1.05338e-05
 Reference value :  1.05372e-05
 Reference value :  1.05440e-05
 Reference value :  1.05544e-05
 Reference value :  1.05690e-05
 Reference value :  1.05939e-05
 Reference value :  1.06282e-05
 Reference value :  1.06661e-05
 Reference value :  1.07115e-05
 Reference value :  1.07501e-05
 Reference value :  1.07501e-05
 Reference value :  1.07501e-05
 Reference value :  1.07502e-05
 Reference value :  1.07502e-05
 Reference value :  1.07502e-05
 Reference value :  1.07502e-05
 Reference value :  1.07502e-05
 Reference value :  1.07502e-05
 Reference value :  1.07502e-05
 Reference value :  1.07502e-05
 Reference value :  1.07503e-05
 Reference value :  1.07504e-05
 Reference value :  1.07506e-05
 Reference value :  1.07509e-05
 Reference value :  1.07515e-05
 Reference value :  1.07521e-05
 Reference value :  1.07528e-05
 Reference value :  1.07535e-05
 Reference value :  1.07544e-05
 Reference value :  1.07551e-05
 Reference value :  1.07560e-05
 Reference value :  1.07568e-05
 Reference value :  1.07577e-05
 Reference value :  1.07589e-05
 Reference value :  1.07608e-05
 Reference value :  1.07632e-05
 Reference value :  1.07663e-05
 Reference value :  1.07706e-05
 Reference value :  1.07774e-05
 Reference value :  1.07909e-05
 Reference value :  1.08177e-05
 Reference value :  1.08712e-05
 Reference value :  1.09240e-05
 Reference value :  1.09870e-05
 Reference value :  1.10000e-05
 Reference value :  1.10000e-05
 Reference value :  1.10000e-05
 Reference value :  1.10001e-05
 Reference value :  1.10001e-05
 Reference value :  1.10001e-05
 Reference value :  1.10001e-05
 Reference value :  1.10001e-05
 Reference value :  1.10002e-05
 Reference value :  1.10002e-05
 Reference value :  1.10004e-05
 Reference value :  1.10006e-05
 Reference value :  1.10009e-05
 Reference value :  1.10014e-05
 Reference value :  1.10020e-05
 Reference value :  1.10026e-05
 Reference value :  1.10033e-05
 Reference value :  1.10041e-05
 Reference value :  1.10050e-05
 Reference value :  1.10059e-05
 Reference value :  1.10069e-05
 Reference value :  1.10081e-05
 Reference value :  1.10093e-05
 Reference value :  1.10106e-05
 Reference value :  1.10120e-05
 Reference value :  1.10136e-05
 Reference value :  1.10149e-05
 Reference value :  1.10165e-05
 Reference value :  1.10180e-05
 Reference value :  1.10198e-05
 Reference value :  1.10233e-05
 Reference value :  1.10292e-05
 Reference value :  1.10397e-05
 Reference value :  1.10606e-05
 Reference value :  1.11024e-05
 Reference value :  1.11860e-05
 Reference value :  1.12501e-05
 Reference value :  1.12501e-05
 Reference value :  1.12501e-05
 Reference value :  1.12502e-05
 Reference value :  1.12502e-05
 Reference value :  1.12502e-05
 Reference value :  1.12502e-05
 Reference value :  1.12502e-05
 Reference value :  1.12502e-05
 Reference value :  1.12502e-05
 Reference value :  1.12502e-05
 Reference value :  1.12503e-05
 Reference value :  1.12504e-05
 Reference value :  1.12506e-05
 Reference value :  1.12509e-05
 Reference value :  1.12516e-05
 Reference value :  1.12522e-05
 Reference value :  1.12528e-05
 Reference value :  1.12535e-05
 Reference value :  1.12544e-05
 Reference value :  1.12551e-05
 Reference value :  1.12560e-05
 Reference value :  1.12567e-05
 Reference value :  1.12575e-05
 Reference value :  1.12585e-05
 Reference value :  1.12596e-05
 Reference value :  1.12608e-05
 Reference value :  1.12625e-05
 Reference value :  1.12645e-05
 Reference value :  1.12672e-05
 Reference value :  1.12707e-05
 Reference value :  1.12753e-05
 Reference value :  1.12844e-05
 Reference value :  1.12977e-05
 Reference value :  1.13242e-05
 Reference value :  1.13772e-05
 Reference value :  1.14832e-05
 Reference value :  1.15000e-05
 Reference value :  1.15000e-05
 Reference value :  1.15000e-05
 Reference value :  1.15001e-05
 Reference value :  1.15001e-05
 Reference value :  1.15001e-05
 Reference value :  1.15001e-05
 Reference value :  1.15001e-05
 Reference value :  1.15002e-05
 Reference value :  1.15002e-05
 Reference value :  1.15004e-05
 Reference value :  1.15006e-05
 Reference value :  1.15009e-05
 Reference value :  1.15014e-05
 Reference value :  1.15020e-05
 Reference value :  1.15026e-05
 Reference value :  1.15034e-05
 Reference value :  1.15041e-05
 Reference value :  1.15050e-05
 Reference value :  1.15057e-05
 Reference value :  1.15065e-05
 Reference value :  1.15072e-05
 Reference value :  1.15081e-05
 Reference value :  1.15089e-05
 Reference value :  1.15099e-05
 Reference value :  1.15111e-05
 Reference value :  1.15130e-05
 Reference value :  1.15149e-05
 Reference value :  1.15166e-05
 Reference value :  1.15183e-05
 Reference value :  1.15202e-05
 Reference value :  1.15217e-05
 Reference value :  1.15232e-05
 Reference value :  1.15251e-05
 Reference value :  1.15268e-05
 Reference value :  1.15283e-05
 Reference value :  1.15304e-05
 Reference value :  1.15331e-05
 Reference value :  1.15359e-05
 Reference value :  1.15407e-05
 Reference value :  1.15472e-05
 Reference value :  1.15574e-05
 Reference value :  1.15737e-05
 Reference value :  1.15992e-05
 Reference value :  1.16244e-05
 Reference value :  1.16552e-05
 Reference value :  1.16878e-05
 Reference value :  1.17186e-05
 Reference value :  1.17501e-05
 Reference value :  1.17501e-05
 Reference value :  1.17501e-05
 Reference value :  1.17502e-05
 Reference value :  1.17502e-05
 Reference value :  1.17502e-05
 Reference value :  1.17502e-05
 Reference value :  1.17502e-05
 Reference value :  1.17502e-05
 Reference value :  1.17502e-05
 Reference value :  1.17502e-05
 Reference value :  1.17503e-05
 Reference value :  1.17504e-05
 Reference value :  1.17506e-05
 Reference value :  1.17509e-05
 Reference value :  1.17516e-05
 Reference value :  1.17521e-05
 Reference value :  1.17528e-05
 Reference value :  1.17535e-05
 Reference value :  1.17544e-05
 Reference value :  1.17551e-05
 Reference value :  1.17560e-05
 Reference value :  1.17568e-05
 Reference value :  1.17577e-05
 Reference value :  1.17589e-05
 Reference value :  1.17608e-05
 Reference value :  1.17632e-05
 Reference value :  1.17663e-05
 Reference value :  1.17699e-05
 Reference value :  1.17751e-05
 Reference value :  1.17806e-05
 Reference value :  1.17891e-05
 Reference value :  1.18029e-05
 Reference value :  1.18297e-05
 Reference value :  1.18607e-05
 Reference value :  1.18920e-05
 Reference value :  1.19546e-05
 Reference value :  1.20000e-05
 Reference value :  1.20000e-05
 Reference value :  1.20000e-05
 Reference value :  1.20001e-05
 Reference value :  1.20001e-05
 Reference value :  1.20001e-05
 Reference value :  1.20001e-05
 Reference value :  1.20001e-05
 Reference value :  1.20002e-05
 Reference value :  1.20002e-05
 Reference value :  1.20004e-05
 Reference value :  1.20006e-05
 Reference value :  1.20009e-05
 Reference value :  1.20014e-05
 Reference value :  1.20020e-05
 Reference value :  1.20026e-05
 Reference value :  1.20033e-05
 Reference value :  1.20041e-05
 Reference value :  1.20050e-05
 Reference value :  1.20059e-05
 Reference value :  1.20069e-05
 Reference value :  1.20080e-05
 Reference value :  1.20092e-05
 Reference value :  1.20104e-05
 Reference value :  1.20116e-05
 Reference value :  1.20133e-05
 Reference value :  1.20146e-05
 Reference value :  1.20162e-05
 Reference value :  1.20178e-05
 Reference value :  1.20195e-05
 Reference value :  1.20230e-05
 Reference value :  1.20292e-05
 Reference value :  1.20396e-05
 Reference value :  1.20604e-05
 Reference value :  1.21019e-05
 Reference value :  1.21849e-05
 Reference value :  1.22501e-05
 Reference value :  1.22501e-05
 Reference value :  1.22501e-05
 Reference value :  1.22502e-05
 Reference value :  1.22502e-05
 Reference value :  1.22502e-05
 Reference value :  1.22502e-05
 Reference value :  1.22502e-05
 Reference value :  1.22502e-05
 Reference value :  1.22502e-05
 Reference value :  1.22502e-05
 Reference value :  1.22503e-05
 Reference value :  1.22504e-05
 Reference value :  1.22506e-05
 Reference value :  1.22509e-05
 Reference value :  1.22516e-05
 Reference value :  1.22522e-05
 Reference value :  1.22528e-05
 Reference value :  1.22535e-05
 Reference value :  1.22544e-05
 Reference value :  1.22551e-05
 Reference value :  1.22560e-05
 Reference value :  1.22567e-05
 Reference value :  1.22575e-05
 Reference value :  1.22586e-05
 Reference value :  1.22597e-05
 Reference value :  1.22607e-05
 Reference value :  1.22625e-05
 Reference value :  1.22643e-05
 Reference value :  1.22671e-05
 Reference value :  1.22705e-05
 Reference value :  1.22751e-05
 Reference value :  1.22840e-05
 Reference value :  1.22957e-05
 Reference value :  1.23186e-05
 Reference value :  1.23612e-05
 Reference value :  1.24434e-05
 Reference value :  1.25000e-05
 Reference value :  1.25000e-05
 Reference value :  1.25000e-05
 Reference value :  1.25001e-05
 Reference value :  1.25001e-05
 Reference value :  1.25001e-05
 Reference value :  1.25001e-05
 Reference value :  1.25001e-05
 Reference value :  1.25002e-05
 Reference value :  1.25002e-05
 Reference value :  1.25004e-05
 Reference value :  1.25006e-05
 Reference value :  1.25009e-05
 Reference value :  1.25014e-05
 Reference value :  1.25020e-05
 Reference value :  1.25026e-05
 Reference value :  1.25034e-05
 Reference value :  1.25041e-05
 Reference value :  1.25050e-05
 Reference value :  1.25057e-05
 Reference value :  1.25065e-05
 Reference value :  1.25072e-05
 Reference value :  1.25080e-05
 Reference value :  1.25089e-05
 Reference value :  1.25099e-05
 Reference value :  1.25112e-05
 Reference value :  1.25132e-05
 Reference value :  1.25146e-05
 Reference value :  1.25161e-05
 Reference value :  1.25177e-05
 Reference value :  1.25194e-05
 Reference value :  1.25210e-05
 Reference value :  1.25224e-05
 Reference value :  1.25238e-05
 Reference value :  1.25252e-05
 Reference value :  1.25267e-05
 Reference value :  1.25282e-05
 Reference value :  1.25297e-05
 Reference value :  1.25323e-05
 Reference value :  1.25354e-05
 Reference value :  1.25415e-05
 Reference value :  1.25480e-05
 Reference value :  1.25563e-05
 Reference value :  1.25616e-05
 Reference value :  1.25668e-05
 Reference value :  1.25730e-05
 Reference value :  1.25794e-05
 Reference value :  1.25910e-05
 Reference value :  1.26040e-05
 Reference value :  1.26245e-05
 Reference value :  1.26457e-05
 Reference value :  1.26676e-05
 Reference value :  1.26928e-05
 Reference value :  1.27277e-05
 Reference value :  1.27501e-05
 Reference value :  1.27501e-05
 Reference value :  1.27501e-05
 Reference value :  1.27502e-05
 Reference value :  1.27502e-05
 Reference value :  1.27502e-05
 Reference value :  1.27502e-05
 Reference value :  1.27502e-05
 Reference value :  1.27502e-05
 Reference value :  1.27502e-05
 Reference value :  1.27502e-05
 Reference value :  1.27503e-05
 Reference value :  1.27504e-05
 Reference value :  1.27506e-05
 Reference value :  1.27509e-05
 Reference value :  1.27516e-05
 Reference value :  1.27522e-05
 Reference value :  1.27528e-05
 Reference value :  1.27535e-05
 Reference value :  1.27544e-05
 Reference value :  1.27552e-05
 Reference value :  1.27560e-05
 Reference value :  1.27569e-05
 Reference value :  1.27578e-05
 Reference value :  1.27590e-05
 Reference value :  1.27608e-05
 Reference value :  1.27633e-05
 Reference value :  1.27664e-05
 Reference value :  1.27707e-05
 Reference value :  1.27775e-05
 Reference value :  1.27910e-05
 Reference value :  1.28172e-05
 Reference value :  1.28696e-05
 Reference value :  1.29744e-05
 Reference value :  1.30000e-05
 Reference value :  1.30000e-05
 Reference value :  1.30000e-05
 Reference value :  1.30001e-05
 Reference value :  1.30001e-05
 Reference value :  1.30001e-05
 Reference value :  1.30001e-05
 Reference value :  1.30001e-05
 Reference value :  1.30002e-05
 Reference value :  1.30002e-05
 Reference value :  1.30004e-05
 Reference value :  1.30006e-05
 Reference value :  1.30009e-05
 Reference value :  1.30014e-05
 Reference value :  1.30020e-05
 Reference value :  1.30026e-05
 Reference value :  1.30034e-05
 Reference value :  1.30041e-05
 Reference value :  1.30049e-05
 Reference value :  1.30058e-05
 Reference value :  1.30068e-05
 Reference value :  1.30079e-05
 Reference value :  1.30090e-05
 Reference value :  1.30102e-05
 Reference value :  1.30114e-05
 Reference value :  1.30131e-05
 Reference value :  1.30145e-05
 Reference value :  1.30160e-05
 Reference value :  1.30175e-05
 Reference value :  1.30193e-05
 Reference value :  1.30228e-05
 Reference value :  1.30278e-05
 Reference value :  1.30377e-05
 Reference value :  1.30577e-05
 Reference value :  1.30977e-05
 Reference value :  1.31777e-05
 Reference value :  1.32501e-05
 Reference value :  1.32501e-05
 Reference value :  1.32501e-05
 Reference value :  1.32502e-05
 Reference value :  1.32502e-05
 Reference value :  1.32502e-05
 Reference value :  1.32502e-05
 Reference value :  1.32502e-05
 Reference value :  1.32502e-05
 Reference value :  1.32502e-05
 Reference value :  1.32502e-05
 Reference value :  1.32503e-05
 Reference value :  1.32504e-05
 Reference value :  1.32506e-05
 Reference value :  1.32509e-05
 Reference value :  1.32515e-05
 Reference value :  1.32521e-05
 Reference value :  1.32528e-05
 Reference value :  1.32535e-05
 Reference value :  1.32544e-05
 Reference value :  1.32551e-05
 Reference value :  1.32560e-05
 Reference value :  1.32567e-05
 Reference value :  1.32575e-05
 Reference value :  1.32585e-05
 Reference value :  1.32597e-05
 Reference value :  1.32619e-05
 Reference value :  1.32642e-05
 Reference value :  1.32683e-05
 Reference value :  1.32726e-05
 Reference value :  1.32814e-05
 Reference value :  1.32989e-05
 Reference value :  1.33339e-05
 Reference value :  1.34039e-05
 Reference value :  1.35000e-05
 Reference value :  1.35000e-05
 Reference value :  1.35000e-05
 Reference value :  1.35001e-05
 Reference value :  1.35001e-05
 Reference value :  1.35001e-05
 Reference value :  1.35001e-05
 Reference value :  1.35001e-05
 Reference value :  1.35002e-05
 Reference value :  1.35002e-05
 Reference value :  1.35004e-05
 Reference value :  1.35006e-05
 Reference value :  1.35009e-05
 Reference value :  1.35014e-05
 Reference value :  1.35020e-05
 Reference value :  1.35026e-05
 Reference value :  1.35034e-05
 Reference value :  1.35041e-05
 Reference value :  1.35050e-05
 Reference value :  1.35057e-05
 Reference value :  1.35065e-05
 Reference value :  1.35073e-05
 Reference value :  1.35083e-05
 Reference value :  1.35092e-05
 Reference value :  1.35105e-05
 Reference value :  1.35121e-05
 Reference value :  1.35144e-05
 Reference value :  1.35178e-05
 Reference value :  1.35202e-05
 Reference value :  1.35223e-05
 Reference value :  1.35242e-05
 Reference value :  1.35262e-05
 Reference value :  1.35281e-05
 Reference value :  1.35303e-05
 Reference value :  1.35325e-05
 Reference value :  1.35354e-05
 Reference value :  1.35388e-05
 Reference value :  1.35440e-05
 Reference value :  1.35513e-05
 Reference value :  1.35622e-05
 Reference value :  1.35760e-05
 Reference value :  1.35913e-05
 Reference value :  1.36156e-05
 Reference value :  1.36419e-05
 Reference value :  1.36911e-05
 Reference value :  1.37501e-05
 Reference value :  1.37501e-05
 Reference value :  1.37501e-05
 Reference value :  1.37502e-05
 Reference value :  1.37502e-05
 Reference value :  1.37502e-05
 Reference value :  1.37502e-05
 Reference value :  1.37502e-05
 Reference value :  1.37502e-05
 Reference value :  1.37502e-05
 Reference value :  1.37502e-05
 Reference value :  1.37503e-05
 Reference value :  1.37504e-05
 Reference value :  1.37506e-05
 Reference value :  1.37509e-05
 Reference value :  1.37516e-05
 Reference value :  1.37522e-05
 Reference value :  1.37528e-05
 Reference value :  1.37535e-05
 Reference value :  1.37544e-05
 Reference value :  1.37552e-05
 Reference value :  1.37560e-05
 Reference value :  1.37568e-05
 Reference value :  1.37577e-05
 Reference value :  1.37589e-05
 Reference value :  1.37608e-05
 Reference value :  1.37632e-05
 Reference value :  1.37663e-05
 Reference value :  1.37706e-05
 Reference value :  1.37773e-05
 Reference value :  1.37907e-05
 Reference value :  1.38163e-05
 Reference value :  1.38677e-05
 Reference value :  1.39704e-05
 Reference value :  1.40000e-05
 Reference value :  1.40000e-05
 Reference value :  1.40000e-05
 Reference value :  1.40001e-05
 Reference value :  1.40001e-05
 Reference value :  1.40001e-05
 Reference value :  1.40001e-05
 Reference value :  1.40001e-05
 Reference value :  1.40002e-05
 Reference value :  1.40002e-05
 Reference value :  1.40004e-05
 Reference value :  1.40006e-05
 Reference value :  1.40009e-05
 Reference value :  1.40014e-05
 Reference value :  1.40020e-05
 Reference value :  1.40026e-05
 Reference value :  1.40034e-05
 Reference value :  1.40041e-05
 Reference value :  1.40049e-05
 Reference value :  1.40059e-05
 Reference value :  1.40069e-05
 Reference value :  1.40081e-05
 Reference value :  1.40092e-05
 Reference value :  1.40105e-05
 Reference value :  1.40119e-05
 Reference value :  1.40134e-05
 Reference value :  1.40151e-05
 Reference value :  1.40167e-05
 Reference value :  1.40189e-05
 Reference value :  1.40212e-05
 Reference value :  1.40252e-05
 Reference value :  1.40311e-05
 Reference value :  1.40411e-05
 Reference value :  1.40595e-05
 Reference value :  1.40912e-05
 Reference value :  1.41508e-05
 Reference value :  1.42501e-05
 Reference value :  1.42501e-05
 Reference value :  1.42501e-05
 Reference value :  1.42502e-05
 Reference value :  1.42502e-05
 Reference value :  1.42502e-05
 Reference value :  1.42502e-05
 Reference value :  1.42502e-05
 Reference value :  1.42502e-05
 Reference value :  1.42502e-05
 Reference value :  1.42502e-05
 Reference value :  1.42503e-05
 Reference value :  1.42504e-05
 Reference value :  1.42506e-05
 Reference value :  1.42509e-05
 Reference value :  1.42516e-05
 Reference value :  1.42522e-05
 Reference value :  1.42528e-05
 Reference value :  1.42535e-05
 Reference value :  1.42544e-05
 Reference value :  1.42551e-05
 Reference value :  1.42560e-05
 Reference value :  1.42567e-05
 Reference value :  1.42575e-05
 Reference value :  1.42585e-05
 Reference value :  1.42596e-05
 Reference value :  1.42618e-05
 Reference value :  1.42641e-05
 Reference value :  1.42682e-05
 Reference value :  1.42726e-05
 Reference value :  1.42813e-05
 Reference value :  1.42987e-05
 Reference value :  1.43335e-05
 Reference value :  1.44032e-05
 Reference value :  1.45000e-05
 Reference value :  1.45000e-05
 Reference value :  1.45000e-05
 Reference value :  1.45001e-05
 Reference value :  1.45001e-05
 Reference value :  1.45001e-05
 Reference value :  1.45001e-05
 Reference value :  1.45001e-05
 Reference value :  1.45002e-05
 Reference value :  1.45002e-05
 Reference value :  1.45004e-05
 Reference value :  1.45006e-05
 Reference value :  1.45009e-05
 Reference value :  1.45014e-05
 Reference value :  1.45020e-05
 Reference value :  1.45026e-05
 Reference value :  1.45034e-05
 Reference value :  1.45041e-05
 Reference value :  1.45050e-05
 Reference value :  1.45057e-05
 Reference value :  1.45066e-05
 Reference value :  1.45073e-05
 Reference value :  1.45082e-05
 Reference value :  1.45091e-05
 Reference value :  1.45103e-05
 Reference value :  1.45120e-05
 Reference value :  1.45142e-05
 Reference value :  1.45168e-05
 Reference value :  1.45190e-05
 Reference value :  1.45213e-05
 Reference value :  1.45230e-05
 Reference value :  1.45246e-05
 Reference value :  1.45259e-05
 Reference value :  1.45274e-05
 Reference value :  1.45291e-05
 Reference value :  1.45312e-05
 Reference value :  1.45339e-05
 Reference value :  1.45374e-05
 Reference value :  1.45440e-05
 Reference value :  1.45530e-05
 Reference value :  1.45612e-05
 Reference value :  1.45727e-05
 Reference value :  1.45903e-05
 Reference value :  1.46148e-05
 Reference value :  1.46637e-05
 Reference value :  1.47410e-05
 Reference value :  1.47501e-05
 Reference value :  1.47501e-05
 Reference value :  1.47501e-05
 Reference value :  1.47502e-05
 Reference value :  1.47502e-05
 Reference value :  1.47502e-05
 Reference value :  1.47502e-05
 Reference value :  1.47502e-05
 Reference value :  1.47502e-05
 Reference value :  1.47502e-05
 Reference value :  1.47502e-05
 Reference value :  1.47503e-05
 Reference value :  1.47504e-05
 Reference value :  1.47506e-05
 Reference value :  1.47509e-05
 Reference value :  1.47516e-05
 Reference value :  1.47522e-05
 Reference value :  1.47528e-05
 Reference value :  1.47535e-05
 Reference value :  1.47544e-05
 Reference value :  1.47552e-05
 Reference value :  1.47560e-05
 Reference value :  1.47569e-05
 Reference value :  1.47578e-05
 Reference value :  1.47590e-05
 Reference value :  1.47608e-05
 Reference value :  1.47633e-05
 Reference value :  1.47664e-05
 Reference value :  1.47707e-05
 Reference value :  1.47776e-05
 Reference value :  1.47915e-05
 Reference value :  1.48177e-05
 Reference value :  1.48702e-05
 Reference value :  1.49751e-05
 Reference value :  1.50000e-05
 Reference value :  1.50000e-05
 Reference value :  1.50000e-05
 Reference value :  1.50001e-05
 Reference value :  1.50001e-05
 Reference value :  1.50001e-05
 Reference value :  1.50001e-05
 Reference value :  1.50001e-05
 Reference value :  1.50002e-05
 Reference value :  1.50002e-05
 Reference value :  1.50004e-05
 Reference value :  1.50006e-05
 Reference value :  1.50009e-05
 Reference value :  1.50014e-05
 Reference value :  1.50020e-05
 Reference value :  1.50026e-05
 Reference value :  1.50034e-05
 Reference value :  1.50041e-05
 Reference value :  1.50049e-05
 Reference value :  1.50058e-05
 Reference value :  1.50067e-05
 Reference value :  1.50078e-05
 Reference value :  1.50092e-05
 Reference value :  1.50104e-05
 Reference value :  1.50117e-05
 Reference value :  1.50135e-05
 Reference value :  1.50152e-05
 Reference value :  1.50169e-05
 Reference value :  1.50188e-05
 Reference value :  1.50210e-05
 Reference value :  1.50246e-05
 Reference value :  1.50299e-05
 Reference value :  1.50390e-05
 Reference value :  1.50553e-05
 Reference value :  1.50842e-05
 Reference value :  1.51386e-05
 Reference value :  1.52384e-05
 Reference value :  1.52501e-05
 Reference value :  1.52501e-05
 Reference value :  1.52501e-05
 Reference value :  1.52502e-05
 Reference value :  1.52502e-05
 Reference value :  1.52502e-05
 Reference value :  1.52502e-05
 Reference value :  1.52502e-05
 Reference value :  1.52502e-05
 Reference value :  1.52502e-05
 Reference value :  1.52502e-05
 Reference value :  1.52503e-05
 Reference value :  1.52504e-05
 Reference value :  1.52506e-05
 Reference value :  1.52509e-05
 Reference value :  1.52516e-05
 Reference value :  1.52522e-05
 Reference value :  1.52528e-05
 Reference value :  1.52535e-05
 Reference value :  1.52544e-05
 Reference value :  1.52551e-05
 Reference value :  1.52560e-05
 Reference value :  1.52567e-05
 Reference value :  1.52575e-05
 Reference value :  1.52585e-05
 Reference value :  1.52596e-05
 Reference value :  1.52617e-05
 Reference value :  1.52640e-05
 Reference value :  1.52680e-05
 Reference value :  1.52723e-05
 Reference value :  1.52809e-05
 Reference value :  1.52980e-05
 Reference value :  1.53323e-05
 Reference value :  1.54010e-05
 Reference value :  1.55000e-05
 Reference value :  1.55014e-05
 Reference value :  1.55042e-05
 Reference value :  1.55057e-05
 Reference value :  1.55071e-05
 Reference value :  1.55084e-05
 Reference value :  1.55096e-05
 Reference value :  1.55110e-05
 Reference value :  1.55124e-05
 Reference value :  1.55144e-05
 Reference value :  1.55170e-05
 Reference value :  1.55195e-05
 Reference value :  1.55221e-05
 Reference value :  1.55240e-05
 Reference value :  1.55259e-05
 Reference value :  1.55274e-05
 Reference value :  1.55291e-05
 Reference value :  1.55311e-05
 Reference value :  1.55337e-05
 Reference value :  1.55365e-05
 Reference value :  1.55408e-05
 Reference value :  1.55454e-05
 Reference value :  1.55533e-05
 Reference value :  1.55634e-05
 Reference value :  1.55813e-05
 Reference value :  1.56098e-05
 Reference value :  1.56666e-05
 Reference value :  1.57501e-05
 Reference value :  1.57501e-05
 Reference value :  1.57501e-05
 Reference value :  1.57502e-05
 Reference value :  1.57502e-05
 Reference value :  1.57502e-05
 Reference value :  1.57502e-05
 Reference value :  1.57502e-05
 Reference value :  1.57502e-05
 Reference value :  1.57502e-05
 Reference value :  1.57502e-05
 Reference value :  1.57503e-05
 Reference value :  1.57504e-05
 Reference value :  1.57506e-05
 Reference value :  1.57509e-05
 Reference value :  1.57516e-05
 Reference value :  1.57522e-05
 Reference value :  1.57528e-05
 Reference value :  1.57535e-05
 Reference value :  1.57544e-05
 Reference value :  1.57551e-05
 Reference value :  1.57559e-05
 Reference value :  1.57568e-05
 Reference value :  1.57577e-05
 Reference value :  1.57589e-05
 Reference value :  1.57607e-05
 Reference value :  1.57632e-05
 Reference value :  1.57662e-05
 Reference value :  1.57706e-05
 Reference value :  1.57771e-05
 Reference value :  1.57900e-05
 Reference value :  1.58160e-05
 Reference value :  1.58678e-05
 Reference value :  1.59715e-05
 Reference value :  1.60000e-05
 Reference value :  1.60000e-05
 Reference value :  1.60000e-05
 Reference value :  1.60001e-05
 Reference value :  1.60001e-05
 Reference value :  1.60001e-05
 Reference value :  1.60001e-05
 Reference value :  1.60001e-05
 Reference value :  1.60002e-05
 Reference value :  1.60002e-05
 Reference value :  1.60004e-05
 Reference value :  1.60006e-05
[...]
 Reference value :  1.74500e-04
 Reference value :  1.74500e-04
 Reference value :  1.74500e-04
 Reference value :  1.74500e-04
 Reference value :  1.74500e-04
 Reference value :  1.74500e-04
 Reference value :  1.74500e-04
 Reference value :  1.74501e-04
 Reference value :  1.74501e-04
 Reference value :  1.74501e-04
 Reference value :  1.74502e-04
 Reference value :  1.74503e-04
 Reference value :  1.74503e-04
 Reference value :  1.74504e-04
 Reference value :  1.74505e-04
 Reference value :  1.74506e-04
 Reference value :  1.74507e-04
 Reference value :  1.74508e-04
 Reference value :  1.74509e-04
 Reference value :  1.74510e-04
 Reference value :  1.74512e-04
 Reference value :  1.74513e-04
 Reference value :  1.74515e-04
 Reference value :  1.74516e-04
 Reference value :  1.74518e-04
 Reference value :  1.74520e-04
 Reference value :  1.74523e-04
 Reference value :  1.74528e-04
 Reference value :  1.74538e-04
 Reference value :  1.74557e-04
 Reference value :  1.74593e-04
 Reference value :  1.74666e-04
 Reference value :  1.74750e-04
 Reference value :  1.74750e-04
 Reference value :  1.74750e-04
 Reference value :  1.74750e-04
 Reference value :  1.74750e-04
 Reference value :  1.74750e-04
 Reference value :  1.74750e-04
 Reference value :  1.74750e-04
 Reference value :  1.74750e-04
 Reference value :  1.74750e-04
 Reference value :  1.74750e-04
 Reference value :  1.74750e-04
 Reference value :  1.74750e-04
 Reference value :  1.74751e-04
 Reference value :  1.74751e-04
 Reference value :  1.74752e-04
 Reference value :  1.74752e-04
 Reference value :  1.74753e-04
 Reference value :  1.74753e-04
 Reference value :  1.74754e-04
 Reference value :  1.74755e-04
 Reference value :  1.74756e-04
 Reference value :  1.74757e-04
 Reference value :  1.74758e-04
 Reference value :  1.74759e-04
 Reference value :  1.74760e-04
 Reference value :  1.74761e-04
 Reference value :  1.74762e-04
 Reference value :  1.74765e-04
 Reference value :  1.74767e-04
 Reference value :  1.74771e-04
 Reference value :  1.74775e-04
 Reference value :  1.74784e-04
 Reference value :  1.74798e-04
 Reference value :  1.74827e-04
 Reference value :  1.74883e-04
 Reference value :  1.74995e-04
 Reference value :  1.75000e-04
 Reference value :  1.75000e-04
 Reference value :  1.75000e-04
 Reference value :  1.75000e-04
 Reference value :  1.75000e-04
 Reference value :  1.75000e-04
 Reference value :  1.75000e-04
 Reference value :  1.75000e-04
 Reference value :  1.75000e-04
 Reference value :  1.75000e-04
 Reference value :  1.75000e-04
 Reference value :  1.75001e-04
 Reference value :  1.75001e-04
 Reference value :  1.75001e-04
 Reference value :  1.75002e-04
 Reference value :  1.75003e-04
 Reference value :  1.75003e-04
 Reference value :  1.75004e-04
 Reference value :  1.75005e-04
 Reference value :  1.75006e-04
 Reference value :  1.75006e-04
 Reference value :  1.75007e-04
 Reference value :  1.75008e-04
 Reference value :  1.75009e-04
 Reference value :  1.75010e-04
 Reference value :  1.75011e-04
 Reference value :  1.75013e-04
 Reference value :  1.75015e-04
 Reference value :  1.75016e-04
 Reference value :  1.75018e-04
 Reference value :  1.75020e-04
 Reference value :  1.75021e-04
 Reference value :  1.75023e-04
 Reference value :  1.75025e-04
 Reference value :  1.75026e-04
 Reference value :  1.75027e-04
 Reference value :  1.75029e-04
 Reference value :  1.75031e-04
 Reference value :  1.75034e-04
 Reference value :  1.75037e-04
 Reference value :  1.75044e-04
 Reference value :  1.75053e-04
 Reference value :  1.75066e-04
 Reference value :  1.75079e-04
 Reference value :  1.75090e-04
 Reference value :  1.75100e-04
 Reference value :  1.75106e-04
 Reference value :  1.75114e-04
 Reference value :  1.75122e-04
 Reference value :  1.75131e-04
 Reference value :  1.75144e-04
 Reference value :  1.75157e-04
 Reference value :  1.75183e-04
 Reference value :  1.75228e-04
 Reference value :  1.75250e-04
 Reference value :  1.75250e-04
 Reference value :  1.75250e-04
 Reference value :  1.75250e-04
 Reference value :  1.75250e-04
 Reference value :  1.75250e-04
 Reference value :  1.75250e-04
 Reference value :  1.75250e-04
 Reference value :  1.75250e-04
 Reference value :  1.75250e-04
 Reference value :  1.75250e-04
 Reference value :  1.75250e-04
 Reference value :  1.75250e-04
 Reference value :  1.75251e-04
 Reference value :  1.75251e-04
 Reference value :  1.75252e-04
 Reference value :  1.75252e-04
 Reference value :  1.75253e-04
 Reference value :  1.75253e-04
 Reference value :  1.75254e-04
 Reference value :  1.75255e-04
 Reference value :  1.75256e-04
 Reference value :  1.75257e-04
 Reference value :  1.75258e-04
 Reference value :  1.75259e-04
 Reference value :  1.75261e-04
 Reference value :  1.75263e-04
 Reference value :  1.75266e-04
 Reference value :  1.75271e-04
 Reference value :  1.75278e-04
 Reference value :  1.75292e-04
 Reference value :  1.75318e-04
 Reference value :  1.75370e-04
 Reference value :  1.75475e-04
 Reference value :  1.75500e-04
 Reference value :  1.75500e-04
 Reference value :  1.75500e-04
 Reference value :  1.75500e-04
 Reference value :  1.75500e-04
 Reference value :  1.75500e-04
 Reference value :  1.75500e-04
 Reference value :  1.75500e-04
 Reference value :  1.75500e-04
 Reference value :  1.75500e-04
 Reference value :  1.75500e-04
 Reference value :  1.75501e-04
 Reference value :  1.75501e-04
 Reference value :  1.75501e-04
 Reference value :  1.75502e-04
 Reference value :  1.75503e-04
 Reference value :  1.75503e-04
 Reference value :  1.75504e-04
 Reference value :  1.75505e-04
 Reference value :  1.75506e-04
 Reference value :  1.75507e-04
 Reference value :  1.75508e-04
 Reference value :  1.75509e-04
 Reference value :  1.75510e-04
 Reference value :  1.75512e-04
 Reference value :  1.75513e-04
 Reference value :  1.75515e-04
 Reference value :  1.75516e-04
 Reference value :  1.75518e-04
 Reference value :  1.75520e-04
 Reference value :  1.75524e-04
 Reference value :  1.75529e-04
 Reference value :  1.75538e-04
 Reference value :  1.75556e-04
 Reference value :  1.75590e-04
 Reference value :  1.75655e-04
 Reference value :  1.75750e-04
 Reference value :  1.75750e-04
 Reference value :  1.75750e-04
 Reference value :  1.75750e-04
 Reference value :  1.75750e-04
 Reference value :  1.75750e-04
 Reference value :  1.75750e-04
 Reference value :  1.75750e-04
 Reference value :  1.75750e-04
 Reference value :  1.75750e-04
 Reference value :  1.75750e-04
 Reference value :  1.75750e-04
 Reference value :  1.75750e-04
 Reference value :  1.75751e-04
 Reference value :  1.75751e-04
 Reference value :  1.75752e-04
 Reference value :  1.75752e-04
 Reference value :  1.75753e-04
 Reference value :  1.75753e-04
 Reference value :  1.75754e-04
 Reference value :  1.75755e-04
 Reference value :  1.75756e-04
 Reference value :  1.75757e-04
 Reference value :  1.75758e-04
 Reference value :  1.75759e-04
 Reference value :  1.75760e-04
 Reference value :  1.75762e-04
 Reference value :  1.75764e-04
 Reference value :  1.75768e-04
 Reference value :  1.75773e-04
 Reference value :  1.75781e-04
 Reference value :  1.75799e-04
 Reference value :  1.75834e-04
 Reference value :  1.75903e-04
 Reference value :  1.76000e-04
 Reference value :  1.76000e-04
 Reference value :  1.76000e-04
 Reference value :  1.76000e-04
 Reference value :  1.76000e-04
 Reference value :  1.76000e-04
 Reference value :  1.76000e-04
 Reference value :  1.76000e-04
 Reference value :  1.76000e-04
 Reference value :  1.76000e-04
 Reference value :  1.76000e-04
 Reference value :  1.76001e-04
 Reference value :  1.76001e-04
 Reference value :  1.76001e-04
 Reference value :  1.76002e-04
 Reference value :  1.76003e-04
 Reference value :  1.76003e-04
 Reference value :  1.76004e-04
 Reference value :  1.76005e-04
 Reference value :  1.76006e-04
 Reference value :  1.76007e-04
 Reference value :  1.76007e-04
 Reference value :  1.76008e-04
 Reference value :  1.76009e-04
 Reference value :  1.76010e-04
 Reference value :  1.76012e-04
 Reference value :  1.76014e-04
 Reference value :  1.76017e-04
 Reference value :  1.76019e-04
 Reference value :  1.76021e-04
 Reference value :  1.76023e-04
 Reference value :  1.76025e-04
 Reference value :  1.76026e-04
 Reference value :  1.76027e-04
 Reference value :  1.76029e-04
 Reference value :  1.76031e-04
 Reference value :  1.76034e-04
 Reference value :  1.76037e-04
 Reference value :  1.76044e-04
 Reference value :  1.76051e-04
 Reference value :  1.76059e-04
 Reference value :  1.76064e-04
 Reference value :  1.76069e-04
 Reference value :  1.76076e-04
 Reference value :  1.76083e-04
 Reference value :  1.76092e-04
 Reference value :  1.76099e-04
 Reference value :  1.76107e-04
 Reference value :  1.76124e-04
 Reference value :  1.76141e-04
 Reference value :  1.76170e-04
 Reference value :  1.76214e-04
 Reference value :  1.76250e-04
 Reference value :  1.76250e-04
 Reference value :  1.76250e-04
 Reference value :  1.76250e-04
 Reference value :  1.76250e-04
 Reference value :  1.76250e-04
 Reference value :  1.76250e-04
 Reference value :  1.76250e-04
 Reference value :  1.76250e-04
 Reference value :  1.76250e-04
 Reference value :  1.76250e-04
 Reference value :  1.76250e-04
 Reference value :  1.76250e-04
 Reference value :  1.76251e-04
 Reference value :  1.76251e-04
 Reference value :  1.76252e-04
 Reference value :  1.76252e-04
 Reference value :  1.76253e-04
 Reference value :  1.76253e-04
 Reference value :  1.76254e-04
 Reference value :  1.76255e-04
 Reference value :  1.76256e-04
 Reference value :  1.76257e-04
 Reference value :  1.76258e-04
 Reference value :  1.76259e-04
 Reference value :  1.76261e-04
 Reference value :  1.76263e-04
 Reference value :  1.76266e-04
 Reference value :  1.76271e-04
 Reference value :  1.76277e-04
 Reference value :  1.76291e-04
 Reference value :  1.76317e-04
 Reference value :  1.76370e-04
 Reference value :  1.76477e-04
 Reference value :  1.76500e-04
 Reference value :  1.76500e-04
 Reference value :  1.76500e-04
 Reference value :  1.76500e-04
 Reference value :  1.76500e-04
 Reference value :  1.76500e-04
 Reference value :  1.76500e-04
 Reference value :  1.76500e-04
 Reference value :  1.76500e-04
 Reference value :  1.76500e-04
 Reference value :  1.76500e-04
 Reference value :  1.76501e-04
 Reference value :  1.76501e-04
 Reference value :  1.76501e-04
 Reference value :  1.76502e-04
 Reference value :  1.76503e-04
 Reference value :  1.76503e-04
 Reference value :  1.76504e-04
 Reference value :  1.76505e-04
 Reference value :  1.76506e-04
 Reference value :  1.76507e-04
 Reference value :  1.76508e-04
 Reference value :  1.76509e-04
 Reference value :  1.76511e-04
 Reference value :  1.76512e-04
 Reference value :  1.76514e-04
 Reference value :  1.76515e-04
 Reference value :  1.76517e-04
 Reference value :  1.76519e-04
 Reference value :  1.76521e-04
 Reference value :  1.76525e-04
 Reference value :  1.76530e-04
 Reference value :  1.76539e-04
 Reference value :  1.76556e-04
 Reference value :  1.76586e-04
 Reference value :  1.76641e-04
 Reference value :  1.76744e-04
 Reference value :  1.76750e-04
 Reference value :  1.76750e-04
 Reference value :  1.76750e-04
 Reference value :  1.76750e-04
 Reference value :  1.76750e-04
 Reference value :  1.76750e-04
 Reference value :  1.76750e-04
 Reference value :  1.76750e-04
 Reference value :  1.76750e-04
 Reference value :  1.76750e-04
 Reference value :  1.76750e-04
 Reference value :  1.76750e-04
 Reference value :  1.76750e-04
 Reference value :  1.76751e-04
 Reference value :  1.76751e-04
 Reference value :  1.76752e-04
 Reference value :  1.76752e-04
 Reference value :  1.76753e-04
 Reference value :  1.76754e-04
 Reference value :  1.76754e-04
 Reference value :  1.76755e-04
 Reference value :  1.76756e-04
 Reference value :  1.76757e-04
 Reference value :  1.76757e-04
 Reference value :  1.76758e-04
 Reference value :  1.76760e-04
 Reference value :  1.76761e-04
 Reference value :  1.76762e-04
 Reference value :  1.76764e-04
 Reference value :  1.76767e-04
 Reference value :  1.76770e-04
 Reference value :  1.76775e-04
 Reference value :  1.76784e-04
 Reference value :  1.76796e-04
 Reference value :  1.76819e-04
 Reference value :  1.76862e-04
 Reference value :  1.76947e-04
 Reference value :  1.77000e-04
 Reference value :  1.77000e-04
 Reference value :  1.77000e-04
 Reference value :  1.77000e-04
 Reference value :  1.77000e-04
 Reference value :  1.77000e-04
 Reference value :  1.77000e-04
 Reference value :  1.77000e-04
 Reference value :  1.77000e-04
 Reference value :  1.77000e-04
 Reference value :  1.77000e-04
 Reference value :  1.77001e-04
 Reference value :  1.77001e-04
 Reference value :  1.77001e-04
 Reference value :  1.77002e-04
 Reference value :  1.77003e-04
 Reference value :  1.77003e-04
 Reference value :  1.77004e-04
 Reference value :  1.77005e-04
 Reference value :  1.77006e-04
 Reference value :  1.77006e-04
 Reference value :  1.77007e-04
 Reference value :  1.77008e-04
 Reference value :  1.77009e-04
 Reference value :  1.77010e-04
 Reference value :  1.77011e-04
 Reference value :  1.77013e-04
 Reference value :  1.77015e-04
 Reference value :  1.77016e-04
 Reference value :  1.77018e-04
 Reference value :  1.77020e-04
 Reference value :  1.77022e-04
 Reference value :  1.77023e-04
 Reference value :  1.77024e-04
 Reference value :  1.77025e-04
 Reference value :  1.77027e-04
 Reference value :  1.77028e-04
 Reference value :  1.77030e-04
 Reference value :  1.77032e-04
 Reference value :  1.77035e-04
 Reference value :  1.77039e-04
 Reference value :  1.77043e-04
 Reference value :  1.77050e-04
 Reference value :  1.77058e-04
 Reference value :  1.77073e-04
 Reference value :  1.77105e-04
 Reference value :  1.77156e-04
 Reference value :  1.77248e-04
 Reference value :  1.77250e-04
 Reference value :  1.77250e-04
 Reference value :  1.77250e-04
 Reference value :  1.77250e-04
 Reference value :  1.77250e-04
 Reference value :  1.77250e-04
 Reference value :  1.77250e-04
 Reference value :  1.77250e-04
 Reference value :  1.77250e-04
 Reference value :  1.77250e-04
 Reference value :  1.77250e-04
 Reference value :  1.77250e-04
 Reference value :  1.77250e-04
 Reference value :  1.77251e-04
 Reference value :  1.77251e-04
 Reference value :  1.77252e-04
 Reference value :  1.77252e-04
 Reference value :  1.77253e-04
 Reference value :  1.77254e-04
 Reference value :  1.77254e-04
 Reference value :  1.77255e-04
 Reference value :  1.77256e-04
 Reference value :  1.77257e-04
 Reference value :  1.77258e-04
 Reference value :  1.77259e-04
 Reference value :  1.77261e-04
 Reference value :  1.77263e-04
 Reference value :  1.77266e-04
 Reference value :  1.77271e-04
 Reference value :  1.77277e-04
 Reference value :  1.77290e-04
 Reference value :  1.77317e-04
 Reference value :  1.77369e-04
 Reference value :  1.77475e-04
 Reference value :  1.77500e-04
 Reference value :  1.77500e-04
 Reference value :  1.77500e-04
 Reference value :  1.77500e-04
 Reference value :  1.77500e-04
 Reference value :  1.77500e-04
 Reference value :  1.77500e-04
 Reference value :  1.77500e-04
 Reference value :  1.77500e-04
 Reference value :  1.77500e-04
 Reference value :  1.77500e-04
 Reference value :  1.77501e-04
 Reference value :  1.77501e-04
 Reference value :  1.77502e-04
 Reference value :  1.77502e-04
 Reference value :  1.77503e-04
 Reference value :  1.77503e-04
 Reference value :  1.77504e-04
 Reference value :  1.77505e-04
 Reference value :  1.77506e-04
 Reference value :  1.77507e-04
 Reference value :  1.77508e-04
 Reference value :  1.77509e-04
 Reference value :  1.77511e-04
 Reference value :  1.77512e-04
 Reference value :  1.77514e-04
 Reference value :  1.77515e-04
 Reference value :  1.77516e-04
 Reference value :  1.77518e-04
 Reference value :  1.77520e-04
 Reference value :  1.77523e-04
 Reference value :  1.77528e-04
 Reference value :  1.77538e-04
 Reference value :  1.77557e-04
 Reference value :  1.77593e-04
 Reference value :  1.77664e-04
 Reference value :  1.77750e-04
 Reference value :  1.77750e-04
 Reference value :  1.77750e-04
 Reference value :  1.77750e-04
 Reference value :  1.77750e-04
 Reference value :  1.77750e-04
 Reference value :  1.77750e-04
 Reference value :  1.77750e-04
 Reference value :  1.77750e-04
 Reference value :  1.77750e-04
 Reference value :  1.77750e-04
 Reference value :  1.77750e-04
 Reference value :  1.77750e-04
 Reference value :  1.77751e-04
 Reference value :  1.77751e-04
 Reference value :  1.77752e-04
 Reference value :  1.77752e-04
 Reference value :  1.77753e-04
 Reference value :  1.77754e-04
 Reference value :  1.77754e-04
 Reference value :  1.77755e-04
 Reference value :  1.77756e-04
 Reference value :  1.77757e-04
 Reference value :  1.77757e-04
 Reference value :  1.77758e-04
 Reference value :  1.77760e-04
 Reference value :  1.77761e-04
 Reference value :  1.77762e-04
 Reference value :  1.77764e-04
 Reference value :  1.77767e-04
 Reference value :  1.77770e-04
 Reference value :  1.77775e-04
 Reference value :  1.77784e-04
 Reference value :  1.77796e-04
 Reference value :  1.77820e-04
 Reference value :  1.77864e-04
 Reference value :  1.77950e-04
 Reference value :  1.78000e-04
 Reference value :  1.78000e-04
 Reference value :  1.78000e-04
 Reference value :  1.78000e-04
 Reference value :  1.78000e-04
 Reference value :  1.78000e-04
 Reference value :  1.78000e-04
 Reference value :  1.78000e-04
 Reference value :  1.78000e-04
 Reference value :  1.78000e-04
 Reference value :  1.78000e-04
 Reference value :  1.78001e-04
 Reference value :  1.78001e-04
 Reference value :  1.78002e-04
 Reference value :  1.78002e-04
 Reference value :  1.78003e-04
 Reference value :  1.78003e-04
 Reference value :  1.78004e-04
 Reference value :  1.78005e-04
 Reference value :  1.78006e-04
 Reference value :  1.78007e-04
 Reference value :  1.78007e-04
 Reference value :  1.78008e-04
 Reference value :  1.78009e-04
 Reference value :  1.78010e-04
 Reference value :  1.78012e-04
 Reference value :  1.78014e-04
 Reference value :  1.78016e-04
 Reference value :  1.78017e-04
 Reference value :  1.78019e-04
 Reference value :  1.78021e-04
 Reference value :  1.78023e-04
 Reference value :  1.78025e-04
 Reference value :  1.78027e-04
 Reference value :  1.78029e-04
 Reference value :  1.78032e-04
 Reference value :  1.78036e-04
 Reference value :  1.78042e-04
 Reference value :  1.78054e-04
 Reference value :  1.78070e-04
 Reference value :  1.78101e-04
 Reference value :  1.78142e-04
 Reference value :  1.78185e-04
 Reference value :  1.78250e-04
 Reference value :  1.78250e-04
 Reference value :  1.78250e-04
 Reference value :  1.78250e-04
 Reference value :  1.78250e-04
 Reference value :  1.78250e-04
 Reference value :  1.78250e-04
 Reference value :  1.78250e-04
 Reference value :  1.78250e-04
 Reference value :  1.78250e-04
 Reference value :  1.78250e-04
 Reference value :  1.78250e-04
 Reference value :  1.78250e-04
 Reference value :  1.78251e-04
 Reference value :  1.78251e-04
 Reference value :  1.78252e-04
 Reference value :  1.78252e-04
 Reference value :  1.78253e-04
 Reference value :  1.78254e-04
 Reference value :  1.78254e-04
 Reference value :  1.78255e-04
 Reference value :  1.78257e-04
 Reference value :  1.78258e-04
 Reference value :  1.78259e-04
 Reference value :  1.78262e-04
 Reference value :  1.78264e-04
 Reference value :  1.78268e-04
 Reference value :  1.78273e-04
 Reference value :  1.78283e-04
 Reference value :  1.78297e-04
 Reference value :  1.78307e-04
 Reference value :  1.78318e-04
 Reference value :  1.78332e-04
 Reference value :  1.78354e-04
 Reference value :  1.78387e-04
 Reference value :  1.78436e-04
 Reference value :  1.78488e-04
 Reference value :  1.78500e-04
No. of Data Rows : 27724
ngspice-44 done
