
Note: Compatibility modes selected: hs a


Circuit: ** sch_path: /home/ece/cace/sar-adc-using-sky130-pdk/runs/run_2025-09-13_01-42-00/parameters/dnl/run_2/sar_output_dnl.sch

option SCALE: Scale is set to 1e-06 for instance and model parameters
option SCALE: Scale is set to 1e-06 for instance and model parameters
option SCALE: Scale is set to 1e-06 for instance and model parameters
option SCALE: Scale is set to 1e-06 for instance and model parameters
Doing analysis at TEMP = 27.000000 and TNOM = 27.000000

Using KLU as Direct Linear Solver
Operating point simulation skipped by 'uic',
  now using transient initial conditions.
 Reference value :  1.00000e-12
 Reference value :  1.19600e-12
 Reference value :  6.47115e-12
 Reference value :  6.20074e-11
 Reference value :  1.82595e-10
 Reference value :  9.78498e-10
 Reference value :  2.50464e-09
 Reference value :  5.07342e-09
 Reference value :  7.51056e-09
 Reference value :  1.15587e-08
 Reference value :  1.43911e-08
 Reference value :  2.93895e-08
 Reference value :  8.28926e-08
 Reference value :  1.37034e-07
 Reference value :  1.51619e-07
 Reference value :  1.63475e-07
 Reference value :  2.07271e-07
 Reference value :  2.50170e-07
 Reference value :  2.50254e-07
 Reference value :  2.50528e-07
 Reference value :  2.51270e-07
 Reference value :  2.52082e-07
 Reference value :  2.53200e-07
 Reference value :  2.54206e-07
 Reference value :  2.55434e-07
 Reference value :  2.58689e-07
 Reference value :  2.79478e-07
 Reference value :  4.77993e-07
 Reference value :  5.00030e-07
 Reference value :  5.00108e-07
 Reference value :  5.00220e-07
 Reference value :  5.00827e-07
 Reference value :  5.01942e-07
 Reference value :  5.02818e-07
 Reference value :  5.05358e-07
 Reference value :  5.07732e-07
 Reference value :  5.09919e-07
 Reference value :  5.11229e-07
 Reference value :  5.13779e-07
 Reference value :  5.20636e-07
 Reference value :  5.81619e-07
 Reference value :  7.50110e-07
 Reference value :  7.50200e-07
 Reference value :  7.50320e-07
 Reference value :  7.50986e-07
 Reference value :  7.51397e-07
 Reference value :  7.52295e-07
 Reference value :  7.53446e-07
 Reference value :  7.54484e-07
 Reference value :  7.55770e-07
 Reference value :  7.57453e-07
 Reference value :  7.59545e-07
 Reference value :  7.63510e-07
 Reference value :  7.88250e-07
 Reference value :  9.86163e-07
 Reference value :  1.00003e-06
 Reference value :  1.00011e-06
 Reference value :  1.00022e-06
 Reference value :  1.00052e-06
 Reference value :  1.00119e-06
 Reference value :  1.00158e-06
 Reference value :  1.00242e-06
 Reference value :  1.00290e-06
 Reference value :  1.00389e-06
 Reference value :  1.00484e-06
 Reference value :  1.00592e-06
 Reference value :  1.00757e-06
 Reference value :  1.00933e-06
 Reference value :  1.01018e-06
 Reference value :  1.01192e-06
 Reference value :  1.01353e-06
 Reference value :  1.01624e-06
 Reference value :  1.02046e-06
 Reference value :  1.05336e-06
 Reference value :  1.19986e-06
 Reference value :  1.25013e-06
 Reference value :  1.25020e-06
 Reference value :  1.25032e-06
 Reference value :  1.25098e-06
 Reference value :  1.25186e-06
 Reference value :  1.25300e-06
 Reference value :  1.25397e-06
 Reference value :  1.25601e-06
 Reference value :  1.26173e-06
 Reference value :  1.31683e-06
 Reference value :  1.50000e-06
 Reference value :  1.50007e-06
 Reference value :  1.50012e-06
 Reference value :  1.50034e-06
 Reference value :  1.50083e-06
 Reference value :  1.50154e-06
 Reference value :  1.50235e-06
 Reference value :  1.50333e-06
 Reference value :  1.50464e-06
 Reference value :  1.50598e-06
 Reference value :  1.50749e-06
 Reference value :  1.50925e-06
 Reference value :  1.51147e-06
 Reference value :  1.52259e-06
 Reference value :  1.58296e-06
 Reference value :  1.75011e-06
 Reference value :  1.75017e-06
 Reference value :  1.75022e-06
 Reference value :  1.75045e-06
 Reference value :  1.75098e-06
 Reference value :  1.75140e-06
 Reference value :  1.75230e-06
 Reference value :  1.75345e-06
 Reference value :  1.75448e-06
 Reference value :  1.75580e-06
 Reference value :  1.75752e-06
 Reference value :  1.75966e-06
 Reference value :  1.76750e-06
 Reference value :  1.82075e-06
 Reference value :  2.00001e-06
 Reference value :  2.00007e-06
 Reference value :  2.00011e-06
 Reference value :  2.00016e-06
 Reference value :  2.00034e-06
 Reference value :  2.00083e-06
 Reference value :  2.00158e-06
 Reference value :  2.00242e-06
 Reference value :  2.00342e-06
 Reference value :  2.00390e-06
 Reference value :  2.00484e-06
 Reference value :  2.00593e-06
 Reference value :  2.00758e-06
 Reference value :  2.00933e-06
 Reference value :  2.01017e-06
 Reference value :  2.01191e-06
 Reference value :  2.01353e-06
 Reference value :  2.01528e-06
 Reference value :  2.01623e-06
 Reference value :  2.01879e-06
 Reference value :  2.02366e-06
 Reference value :  2.04848e-06
 Reference value :  2.05770e-06
 Reference value :  2.06641e-06
 Reference value :  2.07074e-06
 Reference value :  2.07928e-06
 Reference value :  2.09103e-06
 Reference value :  2.11604e-06
 Reference value :  2.19963e-06
 Reference value :  2.25013e-06
 Reference value :  2.25020e-06
 Reference value :  2.25026e-06
 Reference value :  2.25069e-06
 Reference value :  2.25140e-06
 Reference value :  2.25230e-06
 Reference value :  2.25345e-06
 Reference value :  2.25461e-06
 Reference value :  2.25742e-06
 Reference value :  2.26527e-06
 Reference value :  2.31590e-06
 Reference value :  2.50000e-06
 Reference value :  2.50007e-06
 Reference value :  2.50012e-06
 Reference value :  2.50034e-06
 Reference value :  2.50083e-06
 Reference value :  2.50158e-06
 Reference value :  2.50242e-06
 Reference value :  2.50342e-06
 Reference value :  2.50474e-06
 Reference value :  2.50616e-06
 Reference value :  2.50771e-06
 Reference value :  2.51086e-06
 Reference value :  2.52067e-06
 Reference value :  2.65823e-06
 Reference value :  2.75013e-06
 Reference value :  2.75022e-06
 Reference value :  2.75045e-06
 Reference value :  2.75140e-06
 Reference value :  2.75299e-06
 Reference value :  2.75397e-06
 Reference value :  2.75502e-06
 Reference value :  2.75661e-06
 Reference value :  2.76362e-06
 Reference value :  2.80752e-06
 Reference value :  3.00000e-06
 Reference value :  3.00007e-06
 Reference value :  3.00016e-06
 Reference value :  3.00052e-06
 Reference value :  3.00119e-06
 Reference value :  3.00201e-06
 Reference value :  3.00289e-06
 Reference value :  3.00396e-06
 Reference value :  3.00500e-06
 Reference value :  3.00709e-06
 Reference value :  3.00997e-06
 Reference value :  3.01120e-06
 Reference value :  3.01223e-06
 Reference value :  3.01428e-06
 Reference value :  3.01525e-06
 Reference value :  3.01738e-06
 Reference value :  3.02880e-06
 Reference value :  3.07355e-06
 Reference value :  3.15692e-06
 Reference value :  3.25011e-06
 Reference value :  3.25020e-06
 Reference value :  3.25032e-06
 Reference value :  3.25098e-06
 Reference value :  3.25186e-06
 Reference value :  3.25299e-06
 Reference value :  3.25399e-06
 Reference value :  3.25524e-06
 Reference value :  3.25890e-06
 Reference value :  3.28692e-06
 Reference value :  3.50001e-06
 Reference value :  3.50011e-06
 Reference value :  3.50022e-06
 Reference value :  3.50083e-06
 Reference value :  3.50158e-06
 Reference value :  3.50290e-06
 Reference value :  3.50399e-06
 Reference value :  3.50553e-06
 Reference value :  3.50616e-06
 Reference value :  3.50771e-06
 Reference value :  3.51086e-06
 Reference value :  3.52060e-06
 Reference value :  3.58403e-06
 Reference value :  3.75011e-06
 Reference value :  3.75017e-06
 Reference value :  3.75022e-06
 Reference value :  3.75045e-06
 Reference value :  3.75140e-06
 Reference value :  3.75299e-06
 Reference value :  3.75397e-06
 Reference value :  3.75580e-06
 Reference value :  3.76363e-06
 Reference value :  3.80765e-06
 Reference value :  4.00000e-06
 Reference value :  4.00007e-06
 Reference value :  4.00012e-06
 Reference value :  4.00034e-06
 Reference value :  4.00119e-06
 Reference value :  4.00242e-06
 Reference value :  4.00341e-06
 Reference value :  4.00500e-06
 Reference value :  4.00847e-06
 Reference value :  4.01223e-06
 Reference value :  4.01525e-06
 Reference value :  4.02395e-06
 Reference value :  4.04402e-06
 Reference value :  4.06048e-06
 Reference value :  4.07470e-06
 Reference value :  4.10577e-06
 Reference value :  4.25011e-06
 Reference value :  4.25017e-06
 Reference value :  4.25022e-06
 Reference value :  4.25069e-06
 Reference value :  4.25140e-06
 Reference value :  4.25299e-06
 Reference value :  4.25455e-06
 Reference value :  4.25877e-06
 Reference value :  4.31336e-06
 Reference value :  4.50001e-06
 Reference value :  4.50010e-06
 Reference value :  4.50022e-06
 Reference value :  4.50083e-06
 Reference value :  4.50195e-06
 Reference value :  4.50333e-06
 Reference value :  4.50536e-06
 Reference value :  4.50749e-06
 Reference value :  4.51144e-06
 Reference value :  4.64499e-06
 Reference value :  4.75021e-06
 Reference value :  4.75098e-06
 Reference value :  4.75299e-06
 Reference value :  4.75397e-06
 Reference value :  4.75502e-06
 Reference value :  4.75661e-06
 Reference value :  4.75964e-06
 Reference value :  4.77489e-06
 Reference value :  5.00003e-06
 Reference value :  5.00022e-06
 Reference value :  5.00083e-06
 Reference value :  5.00242e-06
 Reference value :  5.00390e-06
 Reference value :  5.00534e-06
 Reference value :  5.00758e-06
 Reference value :  5.00928e-06
 Reference value :  5.01111e-06
 Reference value :  5.01354e-06
 Reference value :  5.01635e-06
 Reference value :  5.02061e-06
 Reference value :  5.02297e-06
 Reference value :  5.02863e-06
 Reference value :  5.03377e-06
 Reference value :  5.05758e-06
 Reference value :  5.10720e-06
 Reference value :  5.25011e-06
 Reference value :  5.25020e-06
 Reference value :  5.25045e-06
 Reference value :  5.25140e-06
 Reference value :  5.25299e-06
 Reference value :  5.25460e-06
 Reference value :  5.25888e-06
 Reference value :  5.31525e-06
 Reference value :  5.50003e-06
 Reference value :  5.50016e-06
 Reference value :  5.50083e-06
 Reference value :  5.50201e-06
 Reference value :  5.50342e-06
 Reference value :  5.50616e-06
 Reference value :  5.50865e-06
 Reference value :  5.51552e-06
 Reference value :  5.65504e-06
 Reference value :  5.75020e-06
 Reference value :  5.75045e-06
 Reference value :  5.75140e-06
 Reference value :  5.75344e-06
 Reference value :  5.75502e-06
 Reference value :  5.76358e-06
 Reference value :  6.00000e-06
 Reference value :  6.00011e-06
 Reference value :  6.00034e-06
 Reference value :  6.00158e-06
 Reference value :  6.00289e-06
 Reference value :  6.00450e-06
 Reference value :  6.00554e-06
 Reference value :  6.00710e-06
 Reference value :  6.00997e-06
 Reference value :  6.01223e-06
 Reference value :  6.01524e-06
 Reference value :  6.02073e-06
 Reference value :  6.08429e-06
 Reference value :  6.25013e-06
 Reference value :  6.25021e-06
 Reference value :  6.25032e-06
 Reference value :  6.25098e-06
 Reference value :  6.25186e-06
 Reference value :  6.25299e-06
 Reference value :  6.25398e-06
 Reference value :  6.25523e-06
 Reference value :  6.25888e-06
 Reference value :  6.28670e-06
 Reference value :  6.50000e-06
 Reference value :  6.50007e-06
 Reference value :  6.50012e-06
 Reference value :  6.50034e-06
 Reference value :  6.50119e-06
 Reference value :  6.50201e-06
 Reference value :  6.50342e-06
 Reference value :  6.50553e-06
 Reference value :  6.50616e-06
 Reference value :  6.50771e-06
 Reference value :  6.50956e-06
 Reference value :  6.51551e-06
 Reference value :  6.58285e-06
 Reference value :  6.75011e-06
 Reference value :  6.75020e-06
 Reference value :  6.75032e-06
 Reference value :  6.75098e-06
 Reference value :  6.75186e-06
 Reference value :  6.75299e-06
 Reference value :  6.75397e-06
 Reference value :  6.75502e-06
 Reference value :  6.75661e-06
 Reference value :  6.76987e-06
 Reference value :  6.85757e-06
 Reference value :  7.00003e-06
 Reference value :  7.00012e-06
 Reference value :  7.00034e-06
 Reference value :  7.00119e-06
 Reference value :  7.00201e-06
 Reference value :  7.00289e-06
 Reference value :  7.00450e-06
 Reference value :  7.00554e-06
 Reference value :  7.00847e-06
 Reference value :  7.01120e-06
 Reference value :  7.01322e-06
 Reference value :  7.01524e-06
 Reference value :  7.01911e-06
 Reference value :  7.02874e-06
 Reference value :  7.11491e-06
 Reference value :  7.25013e-06
 Reference value :  7.25021e-06
 Reference value :  7.25032e-06
 Reference value :  7.25069e-06
 Reference value :  7.25140e-06
 Reference value :  7.25229e-06
 Reference value :  7.25345e-06
 Reference value :  7.25460e-06
 Reference value :  7.25740e-06
 Reference value :  7.27233e-06
 Reference value :  7.37235e-06
 Reference value :  7.50001e-06
 Reference value :  7.50010e-06
 Reference value :  7.50016e-06
 Reference value :  7.50052e-06
 Reference value :  7.50158e-06
 Reference value :  7.50290e-06
 Reference value :  7.50399e-06
 Reference value :  7.50553e-06
 Reference value :  7.50616e-06
 Reference value :  7.50771e-06
 Reference value :  7.51087e-06
 Reference value :  7.52947e-06
 Reference value :  7.75010e-06
 Reference value :  7.75020e-06
 Reference value :  7.75032e-06
 Reference value :  7.75098e-06
 Reference value :  7.75186e-06
 Reference value :  7.75299e-06
 Reference value :  7.75397e-06
 Reference value :  7.75502e-06
 Reference value :  7.75823e-06
 Reference value :  7.78233e-06
 Reference value :  8.00000e-06
 Reference value :  8.00007e-06
 Reference value :  8.00012e-06
 Reference value :  8.00034e-06
 Reference value :  8.00083e-06
 Reference value :  8.00158e-06
 Reference value :  8.00289e-06
 Reference value :  8.00452e-06
 Reference value :  8.00558e-06
 Reference value :  8.00717e-06
 Reference value :  8.00982e-06
 Reference value :  8.03664e-06
 Reference value :  8.25010e-06
 Reference value :  8.25021e-06
 Reference value :  8.25045e-06
 Reference value :  8.25139e-06
 Reference value :  8.25298e-06
 Reference value :  8.25535e-06
 Reference value :  8.25919e-06
 Reference value :  8.29144e-06
 Reference value :  8.50000e-06
 Reference value :  8.50000e-06
 Reference value :  8.50001e-06
 Reference value :  8.50008e-06
 Reference value :  8.50012e-06
 Reference value :  8.50044e-06
 Reference value :  8.50158e-06
 Reference value :  8.50243e-06
 Reference value :  8.50348e-06
 Reference value :  8.50446e-06
 Reference value :  8.50554e-06
 Reference value :  8.51197e-06
 Reference value :  8.52238e-06
 Reference value :  8.52626e-06
 Reference value :  8.52916e-06
 Reference value :  8.53116e-06
 Reference value :  8.53479e-06
 Reference value :  8.53653e-06
 Reference value :  8.54117e-06
 Reference value :  8.54885e-06
 Reference value :  8.56656e-06
 Reference value :  8.62700e-06
 Reference value :  8.70404e-06
 Reference value :  8.72411e-06
 Reference value :  8.74197e-06
 Reference value :  8.75013e-06
 Reference value :  8.75026e-06
 Reference value :  8.75098e-06
 Reference value :  8.75229e-06
 Reference value :  8.75391e-06
 Reference value :  8.75728e-06
 Reference value :  8.86433e-06
 Reference value :  9.00007e-06
 Reference value :  9.00022e-06
 Reference value :  9.00083e-06
 Reference value :  9.00195e-06
 Reference value :  9.00332e-06
 Reference value :  9.00643e-06
 Reference value :  9.00878e-06
 Reference value :  9.01121e-06
 Reference value :  9.01372e-06
 Reference value :  9.01728e-06
 Reference value :  9.08046e-06
 Reference value :  9.25013e-06
 Reference value :  9.25026e-06
 Reference value :  9.25098e-06
 Reference value :  9.25186e-06
 Reference value :  9.25343e-06
 Reference value :  9.25500e-06
 Reference value :  9.25731e-06
 Reference value :  9.26343e-06
 Reference value :  9.35178e-06
 Reference value :  9.50003e-06
 Reference value :  9.50011e-06
 Reference value :  9.50052e-06
 Reference value :  9.50158e-06
 Reference value :  9.50290e-06
 Reference value :  9.50440e-06
 Reference value :  9.50664e-06
 Reference value :  9.50928e-06
 Reference value :  9.51111e-06
 Reference value :  9.51359e-06
 Reference value :  9.51643e-06
 Reference value :  9.52106e-06
 Reference value :  9.54271e-06
 Reference value :  9.66587e-06
 Reference value :  9.75011e-06
 Reference value :  9.75020e-06
 Reference value :  9.75032e-06
 Reference value :  9.75098e-06
 Reference value :  9.75229e-06
 Reference value :  9.75344e-06
 Reference value :  9.75601e-06
 Reference value :  9.77279e-06
 Reference value :  1.00000e-05
 Reference value :  1.00001e-05
 Reference value :  1.00003e-05
 Reference value :  1.00012e-05
 Reference value :  1.00019e-05
 Reference value :  1.00028e-05
 Reference value :  1.00039e-05
 Reference value :  1.00054e-05
 Reference value :  1.00060e-05
 Reference value :  1.00075e-05
 Reference value :  1.00103e-05
 Reference value :  1.00167e-05
 Reference value :  1.00790e-05
 Reference value :  1.02501e-05
 Reference value :  1.02502e-05
 Reference value :  1.02503e-05
 Reference value :  1.02507e-05
 Reference value :  1.02514e-05
 Reference value :  1.02523e-05
 Reference value :  1.02534e-05
 Reference value :  1.02545e-05
 Reference value :  1.02558e-05
 Reference value :  1.02575e-05
 Reference value :  1.02596e-05
 Reference value :  1.02673e-05
 Reference value :  1.03192e-05
 Reference value :  1.05000e-05
 Reference value :  1.05001e-05
 Reference value :  1.05001e-05
 Reference value :  1.05003e-05
 Reference value :  1.05008e-05
 Reference value :  1.05016e-05
 Reference value :  1.05024e-05
 Reference value :  1.05034e-05
 Reference value :  1.05039e-05
 Reference value :  1.05048e-05
 Reference value :  1.05066e-05
 Reference value :  1.05076e-05
 Reference value :  1.05093e-05
 Reference value :  1.05102e-05
 Reference value :  1.05119e-05
 Reference value :  1.05137e-05
 Reference value :  1.05155e-05
 Reference value :  1.05177e-05
 Reference value :  1.05336e-05
 Reference value :  1.05572e-05
 Reference value :  1.05721e-05
 Reference value :  1.05868e-05
 Reference value :  1.06071e-05
 Reference value :  1.07285e-05
 Reference value :  1.07502e-05
 Reference value :  1.07503e-05
 Reference value :  1.07510e-05
 Reference value :  1.07523e-05
 Reference value :  1.07535e-05
 Reference value :  1.07546e-05
 Reference value :  1.07574e-05
 Reference value :  1.07724e-05
 Reference value :  1.09827e-05
 Reference value :  1.10001e-05
 Reference value :  1.10002e-05
 Reference value :  1.10008e-05
 Reference value :  1.10020e-05
 Reference value :  1.10034e-05
 Reference value :  1.10055e-05
 Reference value :  1.10069e-05
 Reference value :  1.10087e-05
 Reference value :  1.10155e-05
 Reference value :  1.11542e-05
 Reference value :  1.12502e-05
 Reference value :  1.12503e-05
 Reference value :  1.12507e-05
 Reference value :  1.12514e-05
 Reference value :  1.12530e-05
 Reference value :  1.12540e-05
 Reference value :  1.12558e-05
 Reference value :  1.12636e-05
 Reference value :  1.14559e-05
 Reference value :  1.15001e-05
 Reference value :  1.15001e-05
 Reference value :  1.15003e-05
 Reference value :  1.15012e-05
 Reference value :  1.15020e-05
 Reference value :  1.15029e-05
 Reference value :  1.15040e-05
 Reference value :  1.15050e-05
 Reference value :  1.15071e-05
 Reference value :  1.15100e-05
 Reference value :  1.15112e-05
 Reference value :  1.15122e-05
 Reference value :  1.15143e-05
 Reference value :  1.15152e-05
 Reference value :  1.15174e-05
 Reference value :  1.15239e-05
 Reference value :  1.15723e-05
 Reference value :  1.16584e-05
 Reference value :  1.17501e-05
 Reference value :  1.17502e-05
 Reference value :  1.17504e-05
 Reference value :  1.17514e-05
 Reference value :  1.17530e-05
 Reference value :  1.17540e-05
 Reference value :  1.17552e-05
 Reference value :  1.17589e-05
 Reference value :  1.17867e-05
 Reference value :  1.20000e-05
 Reference value :  1.20001e-05
 Reference value :  1.20002e-05
 Reference value :  1.20005e-05
 Reference value :  1.20012e-05
 Reference value :  1.20020e-05
 Reference value :  1.20034e-05
 Reference value :  1.20055e-05
 Reference value :  1.20069e-05
 Reference value :  1.20087e-05
 Reference value :  1.20125e-05
 Reference value :  1.20295e-05
 Reference value :  1.21524e-05
 Reference value :  1.22501e-05
 Reference value :  1.22502e-05
 Reference value :  1.22503e-05
 Reference value :  1.22510e-05
 Reference value :  1.22519e-05
 Reference value :  1.22530e-05
 Reference value :  1.22540e-05
 Reference value :  1.22550e-05
 Reference value :  1.22558e-05
 Reference value :  1.22603e-05
 Reference value :  1.22824e-05
 Reference value :  1.25000e-05
 Reference value :  1.25001e-05
 Reference value :  1.25001e-05
 Reference value :  1.25002e-05
 Reference value :  1.25005e-05
 Reference value :  1.25016e-05
 Reference value :  1.25029e-05
 Reference value :  1.25045e-05
 Reference value :  1.25055e-05
 Reference value :  1.25071e-05
 Reference value :  1.25100e-05
 Reference value :  1.25112e-05
 Reference value :  1.25132e-05
 Reference value :  1.25152e-05
 Reference value :  1.25191e-05
 Reference value :  1.25365e-05
 Reference value :  1.25516e-05
 Reference value :  1.25675e-05
 Reference value :  1.25743e-05
 Reference value :  1.25874e-05
 Reference value :  1.26223e-05
 Reference value :  1.27501e-05
 Reference value :  1.27502e-05
 Reference value :  1.27502e-05
 Reference value :  1.27504e-05
 Reference value :  1.27510e-05
 Reference value :  1.27514e-05
 Reference value :  1.27523e-05
 Reference value :  1.27534e-05
 Reference value :  1.27546e-05
 Reference value :  1.27559e-05
 Reference value :  1.27615e-05
 Reference value :  1.27857e-05
 Reference value :  1.29792e-05
 Reference value :  1.30000e-05
 Reference value :  1.30001e-05
 Reference value :  1.30002e-05
 Reference value :  1.30008e-05
 Reference value :  1.30015e-05
 Reference value :  1.30023e-05
 Reference value :  1.30028e-05
 Reference value :  1.30039e-05
 Reference value :  1.30054e-05
 Reference value :  1.30060e-05
 Reference value :  1.30075e-05
 Reference value :  1.30092e-05
 Reference value :  1.30114e-05
 Reference value :  1.30316e-05
 Reference value :  1.32501e-05
 Reference value :  1.32502e-05
 Reference value :  1.32503e-05
 Reference value :  1.32510e-05
 Reference value :  1.32519e-05
 Reference value :  1.32530e-05
 Reference value :  1.32540e-05
 Reference value :  1.32550e-05
 Reference value :  1.32566e-05
 Reference value :  1.32596e-05
 Reference value :  1.32749e-05
 Reference value :  1.34996e-05
 Reference value :  1.35000e-05
 Reference value :  1.35001e-05
 Reference value :  1.35002e-05
 Reference value :  1.35008e-05
 Reference value :  1.35016e-05
 Reference value :  1.35024e-05
 Reference value :  1.35034e-05
 Reference value :  1.35044e-05
 Reference value :  1.35053e-05
 Reference value :  1.35076e-05
 Reference value :  1.35093e-05
 Reference value :  1.35111e-05
 Reference value :  1.35136e-05
 Reference value :  1.35166e-05
 Reference value :  1.35213e-05
 Reference value :  1.35253e-05
 Reference value :  1.35308e-05
 Reference value :  1.35587e-05
 Reference value :  1.37501e-05
 Reference value :  1.37502e-05
 Reference value :  1.37503e-05
 Reference value :  1.37507e-05
 Reference value :  1.37514e-05
 Reference value :  1.37530e-05
 Reference value :  1.37540e-05
 Reference value :  1.37552e-05
 Reference value :  1.37589e-05
 Reference value :  1.37867e-05
 Reference value :  1.40000e-05
 Reference value :  1.40001e-05
 Reference value :  1.40002e-05
 Reference value :  1.40005e-05
 Reference value :  1.40012e-05
 Reference value :  1.40024e-05
 Reference value :  1.40034e-05
 Reference value :  1.40055e-05
 Reference value :  1.40069e-05
 Reference value :  1.40087e-05
 Reference value :  1.40125e-05
 Reference value :  1.40473e-05
 Reference value :  1.42501e-05
 Reference value :  1.42502e-05
 Reference value :  1.42504e-05
 Reference value :  1.42514e-05
 Reference value :  1.42530e-05
 Reference value :  1.42540e-05
 Reference value :  1.42550e-05
 Reference value :  1.42566e-05
 Reference value :  1.42636e-05
 Reference value :  1.43565e-05
 Reference value :  1.45000e-05
 Reference value :  1.45001e-05
 Reference value :  1.45003e-05
 Reference value :  1.45012e-05
 Reference value :  1.45020e-05
 Reference value :  1.45029e-05
 Reference value :  1.45045e-05
 Reference value :  1.45055e-05
 Reference value :  1.45085e-05
 Reference value :  1.45112e-05
 Reference value :  1.45132e-05
 Reference value :  1.45152e-05
 Reference value :  1.45191e-05
 Reference value :  1.45361e-05
 Reference value :  1.46326e-05
 Reference value :  1.47501e-05
 Reference value :  1.47502e-05
 Reference value :  1.47504e-05
 Reference value :  1.47514e-05
 Reference value :  1.47530e-05
 Reference value :  1.47540e-05
 Reference value :  1.47552e-05
 Reference value :  1.47589e-05
 Reference value :  1.47867e-05
 Reference value :  1.50000e-05
 Reference value :  1.50001e-05
 Reference value :  1.50001e-05
 Reference value :  1.50003e-05
 Reference value :  1.50008e-05
 Reference value :  1.50016e-05
 Reference value :  1.50024e-05
 Reference value :  1.50034e-05
 Reference value :  1.50047e-05
 Reference value :  1.50062e-05
 Reference value :  1.50077e-05
 Reference value :  1.50109e-05
 Reference value :  1.50295e-05
 Reference value :  1.52501e-05
 Reference value :  1.52502e-05
 Reference value :  1.52503e-05
 Reference value :  1.52507e-05
 Reference value :  1.52514e-05
 Reference value :  1.52530e-05
 Reference value :  1.52534e-05
 Reference value :  1.52545e-05
 Reference value :  1.52558e-05
 Reference value :  1.52603e-05
 Reference value :  1.52823e-05
 Reference value :  1.54571e-05
 Reference value :  1.55007e-05
 Reference value :  1.55029e-05
 Reference value :  1.55043e-05
 Reference value :  1.55055e-05
 Reference value :  1.55079e-05
 Reference value :  1.55092e-05
 Reference value :  1.55120e-05
 Reference value :  1.55130e-05
 Reference value :  1.55151e-05
 Reference value :  1.55175e-05
 Reference value :  1.55231e-05
 Reference value :  1.55456e-05
 Reference value :  1.56630e-05
 Reference value :  1.57501e-05
 Reference value :  1.57502e-05
 Reference value :  1.57503e-05
 Reference value :  1.57507e-05
 Reference value :  1.57514e-05
 Reference value :  1.57529e-05
 Reference value :  1.57539e-05
 Reference value :  1.57551e-05
 Reference value :  1.57585e-05
 Reference value :  1.57704e-05
 Reference value :  1.59591e-05
 Reference value :  1.60001e-05
 Reference value :  1.60002e-05
 Reference value :  1.60008e-05
 Reference value :  1.60020e-05
 Reference value :  1.60029e-05
 Reference value :  1.60047e-05
 Reference value :  1.60062e-05
 Reference value :  1.60086e-05
 Reference value :  1.60125e-05
 Reference value :  1.60462e-05
 Reference value :  1.62501e-05
 Reference value :  1.62502e-05
 Reference value :  1.62503e-05
 Reference value :  1.62510e-05
 Reference value :  1.62519e-05
 Reference value :  1.62530e-05
 Reference value :  1.62540e-05
 Reference value :  1.62558e-05
 Reference value :  1.62699e-05
 Reference value :  1.65000e-05
 Reference value :  1.65001e-05
 Reference value :  1.65002e-05
 Reference value :  1.65008e-05
 Reference value :  1.65016e-05
 Reference value :  1.65029e-05
 Reference value :  1.65045e-05
 Reference value :  1.65056e-05
 Reference value :  1.65072e-05
 Reference value :  1.65088e-05
 Reference value :  1.65226e-05
 Reference value :  1.67325e-05
 Reference value :  1.67502e-05
 Reference value :  1.67503e-05
 Reference value :  1.67507e-05
 Reference value :  1.67514e-05
 Reference value :  1.67530e-05
 Reference value :  1.67553e-05
 Reference value :  1.67592e-05
 Reference value :  1.67914e-05
 Reference value :  1.70000e-05
 Reference value :  1.70000e-05
 Reference value :  1.70000e-05
 Reference value :  1.70000e-05
 Reference value :  1.70001e-05
 Reference value :  1.70002e-05
 Reference value :  1.70004e-05
 Reference value :  1.70012e-05
 Reference value :  1.70020e-05
 Reference value :  1.70029e-05
 Reference value :  1.70040e-05
 Reference value :  1.70045e-05
 Reference value :  1.70055e-05
 Reference value :  1.70090e-05
 Reference value :  1.70224e-05
 Reference value :  1.70263e-05
 Reference value :  1.70311e-05
 Reference value :  1.70343e-05
 Reference value :  1.70361e-05
 Reference value :  1.70414e-05
 Reference value :  1.70491e-05
 Reference value :  1.70600e-05
 Reference value :  1.70911e-05
 Reference value :  1.71488e-05
 Reference value :  1.72103e-05
 Reference value :  1.72340e-05
 Reference value :  1.72501e-05
 Reference value :  1.72502e-05
 Reference value :  1.72502e-05
 Reference value :  1.72507e-05
 Reference value :  1.72514e-05
 Reference value :  1.72530e-05
 Reference value :  1.72539e-05
 Reference value :  1.72559e-05
 Reference value :  1.72614e-05
 Reference value :  1.73115e-05
 Reference value :  1.75000e-05
 Reference value :  1.75000e-05
 Reference value :  1.75001e-05
 Reference value :  1.75002e-05
 Reference value :  1.75005e-05
 Reference value :  1.75012e-05
 Reference value :  1.75019e-05
 Reference value :  1.75028e-05
 Reference value :  1.75039e-05
 Reference value :  1.75064e-05
 Reference value :  1.75088e-05
 Reference value :  1.75112e-05
 Reference value :  1.75124e-05
 Reference value :  1.75155e-05
 Reference value :  1.75256e-05
 Reference value :  1.75796e-05
 Reference value :  1.77501e-05
 Reference value :  1.77502e-05
 Reference value :  1.77503e-05
 Reference value :  1.77507e-05
 Reference value :  1.77514e-05
 Reference value :  1.77530e-05
 Reference value :  1.77540e-05
 Reference value :  1.77550e-05
 Reference value :  1.77566e-05
 Reference value :  1.77609e-05
 Reference value :  1.77842e-05
 Reference value :  1.80010e-05
 Reference value :  1.80040e-05
 Reference value :  1.80058e-05
 Reference value :  1.80086e-05
 Reference value :  1.80103e-05
 Reference value :  1.80135e-05
 Reference value :  1.80155e-05
 Reference value :  1.80192e-05
 Reference value :  1.80350e-05
 Reference value :  1.81669e-05
 Reference value :  1.82501e-05
 Reference value :  1.82502e-05
 Reference value :  1.82504e-05
 Reference value :  1.82514e-05
 Reference value :  1.82523e-05
 Reference value :  1.82533e-05
 Reference value :  1.82543e-05
 Reference value :  1.82580e-05
 Reference value :  1.82804e-05
 Reference value :  1.84957e-05
 Reference value :  1.85000e-05
 Reference value :  1.85001e-05
 Reference value :  1.85002e-05
 Reference value :  1.85008e-05
 Reference value :  1.85015e-05
 Reference value :  1.85028e-05
 Reference value :  1.85039e-05
 Reference value :  1.85054e-05
 Reference value :  1.85060e-05
 Reference value :  1.85075e-05
 Reference value :  1.85092e-05
 Reference value :  1.85114e-05
 Reference value :  1.85315e-05
 Reference value :  1.87501e-05
 Reference value :  1.87502e-05
 Reference value :  1.87503e-05
 Reference value :  1.87507e-05
 Reference value :  1.87514e-05
 Reference value :  1.87530e-05
 Reference value :  1.87540e-05
 Reference value :  1.87550e-05
 Reference value :  1.87566e-05
 Reference value :  1.87596e-05
 Reference value :  1.87746e-05
 Reference value :  1.89951e-05
 Reference value :  1.90000e-05
 Reference value :  1.90001e-05
 Reference value :  1.90002e-05
 Reference value :  1.90008e-05
 Reference value :  1.90016e-05
 Reference value :  1.90024e-05
 Reference value :  1.90034e-05
 Reference value :  1.90044e-05
 Reference value :  1.90053e-05
 Reference value :  1.90076e-05
 Reference value :  1.90093e-05
 Reference value :  1.90102e-05
 Reference value :  1.90119e-05
 Reference value :  1.90137e-05
 Reference value :  1.90166e-05
 Reference value :  1.90255e-05
 Reference value :  1.90568e-05
 Reference value :  1.90695e-05
 Reference value :  1.90849e-05
 Reference value :  1.91076e-05
 Reference value :  1.91807e-05
 Reference value :  1.92501e-05
 Reference value :  1.92502e-05
 Reference value :  1.92503e-05
 Reference value :  1.92507e-05
 Reference value :  1.92514e-05
 Reference value :  1.92530e-05
 Reference value :  1.92540e-05
 Reference value :  1.92552e-05
 Reference value :  1.92574e-05
 Reference value :  1.92652e-05
 Reference value :  1.93154e-05
 Reference value :  1.95000e-05
 Reference value :  1.95003e-05
 Reference value :  1.95012e-05
 Reference value :  1.95018e-05
 Reference value :  1.95026e-05
 Reference value :  1.95037e-05
 Reference value :  1.95050e-05
 Reference value :  1.95056e-05
 Reference value :  1.95073e-05
 Reference value :  1.95099e-05
 Reference value :  1.95254e-05
 Reference value :  1.97501e-05
 Reference value :  1.97502e-05
 Reference value :  1.97502e-05
 Reference value :  1.97504e-05
 Reference value :  1.97514e-05
 Reference value :  1.97523e-05
 Reference value :  1.97534e-05
 Reference value :  1.97544e-05
 Reference value :  1.97557e-05
 Reference value :  1.97601e-05
 Reference value :  1.98045e-05
 Reference value :  2.00000e-05
 Reference value :  2.00001e-05
 Reference value :  2.00002e-05
 Reference value :  2.00008e-05
 Reference value :  2.00020e-05
 Reference value :  2.00034e-05
 Reference value :  2.00050e-05
 Reference value :  2.00071e-05
 Reference value :  2.00112e-05
 Reference value :  2.00132e-05
 Reference value :  2.00152e-05
 Reference value :  2.00191e-05
 Reference value :  2.00361e-05
 Reference value :  2.01009e-05
 Reference value :  2.01638e-05
 Reference value :  2.02501e-05
 Reference value :  2.02502e-05
 Reference value :  2.02503e-05
 Reference value :  2.02510e-05
 Reference value :  2.02523e-05
 Reference value :  2.02534e-05
 Reference value :  2.02546e-05
 Reference value :  2.02574e-05
 Reference value :  2.02723e-05
 Reference value :  2.04867e-05
 Reference value :  2.05002e-05
 Reference value :  2.05009e-05
 Reference value :  2.05015e-05
 Reference value :  2.05024e-05
 Reference value :  2.05034e-05
 Reference value :  2.05049e-05
 Reference value :  2.05066e-05
 Reference value :  2.05085e-05
 Reference value :  2.05105e-05
 Reference value :  2.05170e-05
 Reference value :  2.05456e-05
 Reference value :  2.07383e-05
 Reference value :  2.07501e-05
 Reference value :  2.07502e-05
 Reference value :  2.07502e-05
 Reference value :  2.07503e-05
 Reference value :  2.07507e-05
 Reference value :  2.07514e-05
 Reference value :  2.07530e-05
 Reference value :  2.07540e-05
 Reference value :  2.07550e-05
 Reference value :  2.07558e-05
 Reference value :  2.07603e-05
 Reference value :  2.07823e-05
 Reference value :  2.08569e-05
 Reference value :  2.10000e-05
 Reference value :  2.10001e-05
 Reference value :  2.10001e-05
 Reference value :  2.10003e-05
 Reference value :  2.10008e-05
 Reference value :  2.10016e-05
 Reference value :  2.10029e-05
 Reference value :  2.10040e-05
 Reference value :  2.10050e-05
 Reference value :  2.10063e-05
 Reference value :  2.10100e-05
 Reference value :  2.10112e-05
 Reference value :  2.10132e-05
 Reference value :  2.10152e-05
 Reference value :  2.10174e-05
 Reference value :  2.10240e-05
 Reference value :  2.10455e-05
 Reference value :  2.10623e-05
 Reference value :  2.10756e-05
 Reference value :  2.10880e-05
 Reference value :  2.11198e-05
 Reference value :  2.12250e-05
 Reference value :  2.12501e-05
 Reference value :  2.12502e-05
 Reference value :  2.12504e-05
 Reference value :  2.12514e-05
 Reference value :  2.12530e-05
 Reference value :  2.12539e-05
 Reference value :  2.12559e-05
 Reference value :  2.12649e-05
 Reference value :  2.13686e-05
 Reference value :  2.15000e-05
 Reference value :  2.15001e-05
 Reference value :  2.15005e-05
 Reference value :  2.15012e-05
 Reference value :  2.15019e-05
 Reference value :  2.15028e-05
 Reference value :  2.15046e-05
 Reference value :  2.15060e-05
 Reference value :  2.15075e-05
 Reference value :  2.15103e-05
 Reference value :  2.15221e-05
 Reference value :  2.16426e-05
 Reference value :  2.17502e-05
 Reference value :  2.17503e-05
 Reference value :  2.17507e-05
 Reference value :  2.17514e-05
 Reference value :  2.17523e-05
 Reference value :  2.17534e-05
 Reference value :  2.17545e-05
 Reference value :  2.17566e-05
 Reference value :  2.17596e-05
 Reference value :  2.18198e-05
 Reference value :  2.20000e-05
 Reference value :  2.20002e-05
 Reference value :  2.20009e-05
 Reference value :  2.20016e-05
 Reference value :  2.20029e-05
 Reference value :  2.20039e-05
 Reference value :  2.20054e-05
 Reference value :  2.20077e-05
 Reference value :  2.20093e-05
 Reference value :  2.20101e-05
 Reference value :  2.20118e-05
 Reference value :  2.20144e-05
 Reference value :  2.20173e-05
 Reference value :  2.20204e-05
 Reference value :  2.20230e-05
 Reference value :  2.20325e-05
 Reference value :  2.20577e-05
 Reference value :  2.20949e-05
 Reference value :  2.22501e-05
 Reference value :  2.22502e-05
 Reference value :  2.22503e-05
 Reference value :  2.22510e-05
 Reference value :  2.22519e-05
 Reference value :  2.22535e-05
 Reference value :  2.22552e-05
 Reference value :  2.22616e-05
 Reference value :  2.23726e-05
 Reference value :  2.25000e-05
 Reference value :  2.25002e-05
 Reference value :  2.25008e-05
 Reference value :  2.25020e-05
 Reference value :  2.25029e-05
 Reference value :  2.25047e-05
 Reference value :  2.25062e-05
 Reference value :  2.25087e-05
 Reference value :  2.25205e-05
 Reference value :  2.27501e-05
 Reference value :  2.27502e-05
 Reference value :  2.27504e-05
 Reference value :  2.27514e-05
 Reference value :  2.27530e-05
 Reference value :  2.27540e-05
 Reference value :  2.27558e-05
 Reference value :  2.27697e-05
 Reference value :  2.30000e-05
 Reference value :  2.30008e-05
 Reference value :  2.30031e-05
 Reference value :  2.30045e-05
 Reference value :  2.30056e-05
 Reference value :  2.30080e-05
 Reference value :  2.30109e-05
 Reference value :  2.30131e-05
 Reference value :  2.30159e-05
 Reference value :  2.30200e-05
 Reference value :  2.30558e-05
 Reference value :  2.32501e-05
 Reference value :  2.32502e-05
 Reference value :  2.32510e-05
 Reference value :  2.32519e-05
 Reference value :  2.32534e-05
 Reference value :  2.32551e-05
 Reference value :  2.32646e-05
 Reference value :  2.34677e-05
 Reference value :  2.35001e-05
 Reference value :  2.35002e-05
 Reference value :  2.35008e-05
 Reference value :  2.35020e-05
 Reference value :  2.35034e-05
 Reference value :  2.35055e-05
 Reference value :  2.35069e-05
 Reference value :  2.35086e-05
 Reference value :  2.35204e-05
 Reference value :  2.37501e-05
 Reference value :  2.37502e-05
 Reference value :  2.37503e-05
 Reference value :  2.37510e-05
 Reference value :  2.37519e-05
 Reference value :  2.37534e-05
 Reference value :  2.37550e-05
 Reference value :  2.37582e-05
 Reference value :  2.38068e-05
 Reference value :  2.40000e-05
 Reference value :  2.40001e-05
 Reference value :  2.40005e-05
 Reference value :  2.40016e-05
 Reference value :  2.40029e-05
 Reference value :  2.40045e-05
 Reference value :  2.40055e-05
 Reference value :  2.40085e-05
 Reference value :  2.40112e-05
 Reference value :  2.40132e-05
 Reference value :  2.40152e-05
 Reference value :  2.40191e-05
 Reference value :  2.40361e-05
 Reference value :  2.41901e-05
 Reference value :  2.42501e-05
 Reference value :  2.42502e-05
 Reference value :  2.42503e-05
 Reference value :  2.42507e-05
 Reference value :  2.42514e-05
 Reference value :  2.42530e-05
 Reference value :  2.42540e-05
 Reference value :  2.42552e-05
 Reference value :  2.42589e-05
 Reference value :  2.42867e-05
 Reference value :  2.45000e-05
 Reference value :  2.45001e-05
 Reference value :  2.45002e-05
 Reference value :  2.45008e-05
 Reference value :  2.45016e-05
 Reference value :  2.45029e-05
 Reference value :  2.45047e-05
 Reference value :  2.45062e-05
 Reference value :  2.45077e-05
 Reference value :  2.45125e-05
 Reference value :  2.45822e-05
 Reference value :  2.47501e-05
 Reference value :  2.47502e-05
 Reference value :  2.47503e-05
 Reference value :  2.47510e-05
 Reference value :  2.47519e-05
 Reference value :  2.47530e-05
 Reference value :  2.47540e-05
 Reference value :  2.47558e-05
 Reference value :  2.47636e-05
 Reference value :  2.49566e-05
 Reference value :  2.50001e-05
 Reference value :  2.50002e-05
 Reference value :  2.50005e-05
 Reference value :  2.50012e-05
 Reference value :  2.50020e-05
 Reference value :  2.50029e-05
 Reference value :  2.50045e-05
 Reference value :  2.50056e-05
 Reference value :  2.50072e-05
 Reference value :  2.50088e-05
 Reference value :  2.50226e-05
 Reference value :  2.52327e-05
 Reference value :  2.52502e-05
 Reference value :  2.52503e-05
 Reference value :  2.52507e-05
 Reference value :  2.52514e-05
 Reference value :  2.52530e-05
 Reference value :  2.52545e-05
 Reference value :  2.52562e-05
 Reference value :  2.52619e-05
 Reference value :  2.53217e-05
 Reference value :  2.55000e-05
 Reference value :  2.55000e-05
 Reference value :  2.55000e-05
 Reference value :  2.55001e-05
 Reference value :  2.55001e-05
 Reference value :  2.55004e-05
 Reference value :  2.55012e-05
 Reference value :  2.55020e-05
 Reference value :  2.55029e-05
 Reference value :  2.55040e-05
 Reference value :  2.55045e-05
 Reference value :  2.55055e-05
 Reference value :  2.55090e-05
 Reference value :  2.55224e-05
 Reference value :  2.55263e-05
 Reference value :  2.55292e-05
 Reference value :  2.55336e-05
 Reference value :  2.55355e-05
 Reference value :  2.55375e-05
 Reference value :  2.55417e-05
 Reference value :  2.55495e-05
 Reference value :  2.55628e-05
 Reference value :  2.55816e-05
 Reference value :  2.56155e-05
 Reference value :  2.56865e-05
 Reference value :  2.57338e-05
 Reference value :  2.57501e-05
 Reference value :  2.57502e-05
 Reference value :  2.57502e-05
 Reference value :  2.57504e-05
 Reference value :  2.57514e-05
 Reference value :  2.57530e-05
 Reference value :  2.57539e-05
 Reference value :  2.57559e-05
 Reference value :  2.57648e-05
 Reference value :  2.58649e-05
 Reference value :  2.60000e-05
 Reference value :  2.60001e-05
 Reference value :  2.60002e-05
 Reference value :  2.60008e-05
 Reference value :  2.60015e-05
 Reference value :  2.60028e-05
 Reference value :  2.60046e-05
 Reference value :  2.60064e-05
 Reference value :  2.60088e-05
 Reference value :  2.60112e-05
 Reference value :  2.60137e-05
 Reference value :  2.60205e-05
 Reference value :  2.61406e-05
 Reference value :  2.62502e-05
 Reference value :  2.62503e-05
 Reference value :  2.62507e-05
 Reference value :  2.62514e-05
 Reference value :  2.62530e-05
 Reference value :  2.62540e-05
 Reference value :  2.62558e-05
 Reference value :  2.62582e-05
 Reference value :  2.62667e-05
 Reference value :  2.63513e-05
 Reference value :  2.65010e-05
 Reference value :  2.65040e-05
 Reference value :  2.65058e-05
 Reference value :  2.65086e-05
 Reference value :  2.65094e-05
 Reference value :  2.65125e-05
 Reference value :  2.65156e-05
 Reference value :  2.65193e-05
 Reference value :  2.65349e-05
 Reference value :  2.66635e-05
 Reference value :  2.67501e-05
 Reference value :  2.67502e-05
 Reference value :  2.67503e-05
 Reference value :  2.67507e-05
 Reference value :  2.67514e-05
 Reference value :  2.67529e-05
 Reference value :  2.67538e-05
 Reference value :  2.67549e-05
 Reference value :  2.67580e-05
 Reference value :  2.67804e-05
 Reference value :  2.69065e-05
 Reference value :  2.70000e-05
 Reference value :  2.70001e-05
 Reference value :  2.70002e-05
 Reference value :  2.70008e-05
 Reference value :  2.70015e-05
 Reference value :  2.70028e-05
 Reference value :  2.70046e-05
 Reference value :  2.70060e-05
 Reference value :  2.70075e-05
 Reference value :  2.70103e-05
 Reference value :  2.70221e-05
 Reference value :  2.71422e-05
 Reference value :  2.72501e-05
 Reference value :  2.72502e-05
 Reference value :  2.72504e-05
 Reference value :  2.72514e-05
 Reference value :  2.72530e-05
 Reference value :  2.72540e-05
 Reference value :  2.72558e-05
 Reference value :  2.72583e-05
 Reference value :  2.72636e-05
 Reference value :  2.73776e-05
 Reference value :  2.75000e-05
 Reference value :  2.75001e-05
 Reference value :  2.75003e-05
 Reference value :  2.75012e-05
 Reference value :  2.75024e-05
 Reference value :  2.75039e-05
 Reference value :  2.75048e-05
 Reference value :  2.75066e-05
 Reference value :  2.75084e-05
 Reference value :  2.75102e-05
 Reference value :  2.75119e-05
 Reference value :  2.75137e-05
 Reference value :  2.75155e-05
 Reference value :  2.75177e-05
 Reference value :  2.75255e-05
 Reference value :  2.75567e-05
 Reference value :  2.75652e-05
 Reference value :  2.75692e-05
 Reference value :  2.75729e-05
 Reference value :  2.75839e-05
 Reference value :  2.75983e-05
 Reference value :  2.76429e-05
 Reference value :  2.77300e-05
 Reference value :  2.77501e-05
 Reference value :  2.77502e-05
 Reference value :  2.77503e-05
 Reference value :  2.77510e-05
 Reference value :  2.77519e-05
 Reference value :  2.77530e-05
 Reference value :  2.77540e-05
 Reference value :  2.77552e-05
 Reference value :  2.77574e-05
 Reference value :  2.77652e-05
 Reference value :  2.78154e-05
 Reference value :  2.80000e-05
 Reference value :  2.80003e-05
 Reference value :  2.80012e-05
 Reference value :  2.80019e-05
 Reference value :  2.80028e-05
 Reference value :  2.80039e-05
 Reference value :  2.80055e-05
 Reference value :  2.80061e-05
 Reference value :  2.80077e-05
 Reference value :  2.80096e-05
 Reference value :  2.80167e-05
 Reference value :  2.81319e-05
 Reference value :  2.82501e-05
 Reference value :  2.82502e-05
 Reference value :  2.82503e-05
 Reference value :  2.82510e-05
 Reference value :  2.82514e-05
 Reference value :  2.82523e-05
 Reference value :  2.82534e-05
 Reference value :  2.82545e-05
 Reference value :  2.82558e-05
 Reference value :  2.82603e-05
 Reference value :  2.83069e-05
 Reference value :  2.85000e-05
 Reference value :  2.85001e-05
 Reference value :  2.85002e-05
 Reference value :  2.85003e-05
 Reference value :  2.85008e-05
 Reference value :  2.85016e-05
 Reference value :  2.85024e-05
 Reference value :  2.85034e-05
 Reference value :  2.85045e-05
 Reference value :  2.85055e-05
 Reference value :  2.85085e-05
 Reference value :  2.85112e-05
 Reference value :  2.85122e-05
 Reference value :  2.85143e-05
 Reference value :  2.85163e-05
 Reference value :  2.85191e-05
 Reference value :  2.85287e-05
 Reference value :  2.85723e-05
 Reference value :  2.86733e-05
 Reference value :  2.87501e-05
 Reference value :  2.87502e-05
 Reference value :  2.87504e-05
 Reference value :  2.87514e-05
 Reference value :  2.87530e-05
 Reference value :  2.87540e-05
 Reference value :  2.87552e-05
 Reference value :  2.87589e-05
 Reference value :  2.87723e-05
 Reference value :  2.88724e-05
 Reference value :  2.90002e-05
 Reference value :  2.90009e-05
 Reference value :  2.90015e-05
 Reference value :  2.90024e-05
 Reference value :  2.90034e-05
 Reference value :  2.90049e-05
 Reference value :  2.90066e-05
 Reference value :  2.90085e-05
 Reference value :  2.90105e-05
 Reference value :  2.90170e-05
 Reference value :  2.90456e-05
 Reference value :  2.92383e-05
 Reference value :  2.92501e-05
 Reference value :  2.92502e-05
 Reference value :  2.92503e-05
 Reference value :  2.92507e-05
 Reference value :  2.92514e-05
 Reference value :  2.92523e-05
 Reference value :  2.92534e-05
 Reference value :  2.92545e-05
 Reference value :  2.92558e-05
 Reference value :  2.92582e-05
 Reference value :  2.92698e-05
 Reference value :  2.93071e-05
 Reference value :  2.95000e-05
 Reference value :  2.95001e-05
 Reference value :  2.95001e-05
 Reference value :  2.95002e-05
 Reference value :  2.95003e-05
 Reference value :  2.95008e-05
 Reference value :  2.95016e-05
 Reference value :  2.95024e-05
 Reference value :  2.95034e-05
 Reference value :  2.95045e-05
 Reference value :  2.95050e-05
 Reference value :  2.95063e-05
 Reference value :  2.95085e-05
 Reference value :  2.95112e-05
 Reference value :  2.95132e-05
 Reference value :  2.95152e-05
 Reference value :  2.95191e-05
 Reference value :  2.95289e-05
 Reference value :  2.95469e-05
 Reference value :  2.95564e-05
 Reference value :  2.95635e-05
 Reference value :  2.95770e-05
 Reference value :  2.95895e-05
 Reference value :  2.96211e-05
 Reference value :  2.96747e-05
 Reference value :  2.97501e-05
 Reference value :  2.97502e-05
 Reference value :  2.97502e-05
 Reference value :  2.97504e-05
 Reference value :  2.97510e-05
 Reference value :  2.97514e-05
 Reference value :  2.97523e-05
 Reference value :  2.97534e-05
 Reference value :  2.97546e-05
 Reference value :  2.97559e-05
 Reference value :  2.97615e-05
 Reference value :  2.97857e-05
 Reference value :  3.00000e-05
 Reference value :  3.00001e-05
 Reference value :  3.00001e-05
 Reference value :  3.00003e-05
 Reference value :  3.00012e-05
 Reference value :  3.00019e-05
 Reference value :  3.00028e-05
 Reference value :  3.00046e-05
 Reference value :  3.00060e-05
 Reference value :  3.00075e-05
 Reference value :  3.00103e-05
 Reference value :  3.00221e-05
 Reference value :  3.01427e-05
 Reference value :  3.02501e-05
 Reference value :  3.02502e-05
 Reference value :  3.02503e-05
 Reference value :  3.02510e-05
 Reference value :  3.02519e-05
 Reference value :  3.02530e-05
 Reference value :  3.02534e-05
 Reference value :  3.02545e-05
 Reference value :  3.02558e-05
 Reference value :  3.02575e-05
 Reference value :  3.02596e-05
 Reference value :  3.02674e-05
 Reference value :  3.03198e-05
 Reference value :  3.05000e-05
 Reference value :  3.05000e-05
 Reference value :  3.05001e-05
 Reference value :  3.05001e-05
 Reference value :  3.05003e-05
 Reference value :  3.05008e-05
 Reference value :  3.05016e-05
 Reference value :  3.05025e-05
 Reference value :  3.05035e-05
 Reference value :  3.05046e-05
 Reference value :  3.05057e-05
 Reference value :  3.05083e-05
 Reference value :  3.05103e-05
 Reference value :  3.05121e-05
 Reference value :  3.05137e-05
 Reference value :  3.05155e-05
 Reference value :  3.05165e-05
 Reference value :  3.05183e-05
 Reference value :  3.05222e-05
 Reference value :  3.05367e-05
 Reference value :  3.05592e-05
 Reference value :  3.06068e-05
 Reference value :  3.07501e-05
 Reference value :  3.07502e-05
 Reference value :  3.07503e-05
 Reference value :  3.07507e-05
 Reference value :  3.07514e-05
 Reference value :  3.07530e-05
 Reference value :  3.07534e-05
 Reference value :  3.07546e-05
 Reference value :  3.07574e-05
 Reference value :  3.07651e-05
 Reference value :  3.08146e-05
 Reference value :  3.10000e-05
 Reference value :  3.10001e-05
 Reference value :  3.10001e-05
 Reference value :  3.10002e-05
 Reference value :  3.10003e-05
 Reference value :  3.10008e-05
 Reference value :  3.10016e-05
 Reference value :  3.10024e-05
 Reference value :  3.10034e-05
 Reference value :  3.10047e-05
 Reference value :  3.10062e-05
 Reference value :  3.10077e-05
 Reference value :  3.10109e-05
 Reference value :  3.10205e-05
 Reference value :  3.11540e-05
 Reference value :  3.12501e-05
 Reference value :  3.12502e-05
 Reference value :  3.12503e-05
 Reference value :  3.12510e-05
 Reference value :  3.12519e-05
 Reference value :  3.12530e-05
 Reference value :  3.12534e-05
 Reference value :  3.12545e-05
 Reference value :  3.12558e-05
 Reference value :  3.12603e-05
 Reference value :  3.12824e-05
 Reference value :  3.14576e-05
 Reference value :  3.15000e-05
 Reference value :  3.15001e-05
 Reference value :  3.15002e-05
 Reference value :  3.15008e-05
 Reference value :  3.15016e-05
 Reference value :  3.15029e-05
 Reference value :  3.15045e-05
 Reference value :  3.15055e-05
 Reference value :  3.15085e-05
 Reference value :  3.15112e-05
 Reference value :  3.15132e-05
 Reference value :  3.15152e-05
 Reference value :  3.15191e-05
 Reference value :  3.15361e-05
 Reference value :  3.16379e-05
 Reference value :  3.17501e-05
 Reference value :  3.17502e-05
 Reference value :  3.17503e-05
 Reference value :  3.17510e-05
 Reference value :  3.17519e-05
 Reference value :  3.17530e-05
 Reference value :  3.17546e-05
 Reference value :  3.17574e-05
 Reference value :  3.17724e-05
 Reference value :  3.19875e-05
 Reference value :  3.20001e-05
 Reference value :  3.20002e-05
 Reference value :  3.20005e-05
 Reference value :  3.20012e-05
 Reference value :  3.20020e-05
 Reference value :  3.20029e-05
 Reference value :  3.20047e-05
 Reference value :  3.20069e-05
 Reference value :  3.20109e-05
 Reference value :  3.20823e-05
 Reference value :  3.22502e-05
 Reference value :  3.22503e-05
 Reference value :  3.22514e-05
 Reference value :  3.22530e-05
 Reference value :  3.22540e-05
 Reference value :  3.22558e-05
 Reference value :  3.22698e-05
 Reference value :  3.25000e-05
 Reference value :  3.25001e-05
 Reference value :  3.25003e-05
 Reference value :  3.25016e-05
 Reference value :  3.25029e-05
 Reference value :  3.25050e-05
 Reference value :  3.25085e-05
 Reference value :  3.25112e-05
 Reference value :  3.25132e-05
 Reference value :  3.25152e-05
 Reference value :  3.25207e-05
 Reference value :  3.25495e-05
 Reference value :  3.26956e-05
 Reference value :  3.27501e-05
 Reference value :  3.27502e-05
 Reference value :  3.27503e-05
 Reference value :  3.27507e-05
 Reference value :  3.27514e-05
 Reference value :  3.27530e-05
 Reference value :  3.27540e-05
 Reference value :  3.27552e-05
 Reference value :  3.27616e-05
 Reference value :  3.27867e-05
 Reference value :  3.29870e-05
 Reference value :  3.30000e-05
 Reference value :  3.30001e-05
 Reference value :  3.30002e-05
 Reference value :  3.30008e-05
 Reference value :  3.30016e-05
 Reference value :  3.30029e-05
 Reference value :  3.30047e-05
 Reference value :  3.30062e-05
 Reference value :  3.30087e-05
 Reference value :  3.30155e-05
 Reference value :  3.31525e-05
 Reference value :  3.32502e-05
 Reference value :  3.32503e-05
 Reference value :  3.32507e-05
 Reference value :  3.32514e-05
 Reference value :  3.32530e-05
 Reference value :  3.32540e-05
 Reference value :  3.32558e-05
 Reference value :  3.32698e-05
 Reference value :  3.35000e-05
 Reference value :  3.35007e-05
 Reference value :  3.35030e-05
 Reference value :  3.35043e-05
 Reference value :  3.35056e-05
 Reference value :  3.35079e-05
 Reference value :  3.35107e-05
 Reference value :  3.35329e-05
 Reference value :  3.37501e-05
 Reference value :  3.37502e-05
 Reference value :  3.37507e-05
 Reference value :  3.37519e-05
 Reference value :  3.37536e-05
 Reference value :  3.37576e-05
 Reference value :  3.37901e-05
 Reference value :  3.40000e-05
 Reference value :  3.40000e-05
 Reference value :  3.40000e-05
 Reference value :  3.40001e-05
 Reference value :  3.40003e-05
 Reference value :  3.40012e-05
 Reference value :  3.40020e-05
 Reference value :  3.40029e-05
 Reference value :  3.40040e-05
 Reference value :  3.40045e-05
 Reference value :  3.40055e-05
 Reference value :  3.40090e-05
 Reference value :  3.40224e-05
 Reference value :  3.40263e-05
 Reference value :  3.40320e-05
 Reference value :  3.40376e-05
 Reference value :  3.40457e-05
 Reference value :  3.40623e-05
 Reference value :  3.41117e-05
 Reference value :  3.42270e-05
 Reference value :  3.42501e-05
 Reference value :  3.42503e-05
 Reference value :  3.42510e-05
 Reference value :  3.42530e-05
 Reference value :  3.42539e-05
 Reference value :  3.42573e-05
 Reference value :  3.42846e-05
 Reference value :  3.45000e-05
 Reference value :  3.45002e-05
 Reference value :  3.45008e-05
 Reference value :  3.45019e-05
 Reference value :  3.45028e-05
 Reference value :  3.45046e-05
 Reference value :  3.45064e-05
 Reference value :  3.45088e-05
 Reference value :  3.45124e-05
 Reference value :  3.45173e-05
 Reference value :  3.45493e-05
 Reference value :  3.47501e-05
 Reference value :  3.47502e-05
 Reference value :  3.47503e-05
 Reference value :  3.47510e-05
 Reference value :  3.47514e-05
 Reference value :  3.47523e-05
 Reference value :  3.47534e-05
 Reference value :  3.47545e-05
 Reference value :  3.47558e-05
 Reference value :  3.47582e-05
 Reference value :  3.47635e-05
 Reference value :  3.47841e-05
 Reference value :  3.50000e-05
 Reference value :  3.50001e-05
 Reference value :  3.50002e-05
 Reference value :  3.50008e-05
 Reference value :  3.50020e-05
 Reference value :  3.50029e-05
 Reference value :  3.50039e-05
 Reference value :  3.50048e-05
 Reference value :  3.50066e-05
 Reference value :  3.50084e-05
 Reference value :  3.50102e-05
 Reference value :  3.50119e-05
 Reference value :  3.50136e-05
 Reference value :  3.50154e-05
 Reference value :  3.50175e-05
 Reference value :  3.50211e-05
 Reference value :  3.50427e-05
 Reference value :  3.51084e-05
 Reference value :  3.52315e-05
 Reference value :  3.52501e-05
 Reference value :  3.52502e-05
 Reference value :  3.52503e-05
 Reference value :  3.52504e-05
 Reference value :  3.52510e-05
 Reference value :  3.52519e-05
 Reference value :  3.52530e-05
 Reference value :  3.52540e-05
 Reference value :  3.52560e-05
 Reference value :  3.52728e-05
 Reference value :  3.54309e-05
 Reference value :  3.55001e-05
 Reference value :  3.55002e-05
 Reference value :  3.55005e-05
 Reference value :  3.55012e-05
 Reference value :  3.55019e-05
 Reference value :  3.55028e-05
 Reference value :  3.55046e-05
 Reference value :  3.55060e-05
 Reference value :  3.55075e-05
 Reference value :  3.55092e-05
 Reference value :  3.55103e-05
 Reference value :  3.55167e-05
 Reference value :  3.55473e-05
 Reference value :  3.57501e-05
 Reference value :  3.57501e-05
 Reference value :  3.57502e-05
 Reference value :  3.57503e-05
 Reference value :  3.57504e-05
 Reference value :  3.57514e-05
 Reference value :  3.57530e-05
 Reference value :  3.57540e-05
 Reference value :  3.57550e-05
 Reference value :  3.57566e-05
 Reference value :  3.57596e-05
 Reference value :  3.57747e-05
 Reference value :  3.59970e-05
 Reference value :  3.60001e-05
 Reference value :  3.60001e-05
 Reference value :  3.60003e-05
 Reference value :  3.60009e-05
 Reference value :  3.60016e-05
 Reference value :  3.60024e-05
 Reference value :  3.60034e-05
 Reference value :  3.60044e-05
 Reference value :  3.60053e-05
 Reference value :  3.60075e-05
 Reference value :  3.60093e-05
 Reference value :  3.60102e-05
 Reference value :  3.60112e-05
 Reference value :  3.60119e-05
 Reference value :  3.60135e-05
 Reference value :  3.60153e-05
 Reference value :  3.60172e-05
 Reference value :  3.60204e-05
 Reference value :  3.60366e-05
 Reference value :  3.60465e-05
 Reference value :  3.60554e-05
 Reference value :  3.60630e-05
 Reference value :  3.60664e-05
 Reference value :  3.60697e-05
 Reference value :  3.60793e-05
 Reference value :  3.60913e-05
 Reference value :  3.61187e-05
 Reference value :  3.62293e-05
 Reference value :  3.62501e-05
 Reference value :  3.62502e-05
 Reference value :  3.62504e-05
 Reference value :  3.62514e-05
 Reference value :  3.62530e-05
 Reference value :  3.62540e-05
 Reference value :  3.62552e-05
 Reference value :  3.62589e-05
 Reference value :  3.62866e-05
 Reference value :  3.65000e-05
 Reference value :  3.65001e-05
 Reference value :  3.65001e-05
 Reference value :  3.65003e-05
 Reference value :  3.65012e-05
 Reference value :  3.65020e-05
 Reference value :  3.65029e-05
 Reference value :  3.65040e-05
 Reference value :  3.65055e-05
 Reference value :  3.65062e-05
 Reference value :  3.65077e-05
 Reference value :  3.65109e-05
 Reference value :  3.65296e-05
 Reference value :  3.67501e-05
 Reference value :  3.67502e-05
 Reference value :  3.67502e-05
 Reference value :  3.67504e-05
 Reference value :  3.67514e-05
 Reference value :  3.67530e-05
 Reference value :  3.67540e-05
 Reference value :  3.67550e-05
 Reference value :  3.67582e-05
 Reference value :  3.67823e-05
 Reference value :  3.70000e-05
 Reference value :  3.70001e-05
 Reference value :  3.70002e-05
 Reference value :  3.70008e-05
 Reference value :  3.70016e-05
 Reference value :  3.70029e-05
 Reference value :  3.70045e-05
 Reference value :  3.70055e-05
 Reference value :  3.70071e-05
 Reference value :  3.70100e-05
 Reference value :  3.70112e-05
 Reference value :  3.70132e-05
 Reference value :  3.70152e-05
 Reference value :  3.70191e-05
 Reference value :  3.70361e-05
 Reference value :  3.71006e-05
 Reference value :  3.72189e-05
 Reference value :  3.72502e-05
 Reference value :  3.72503e-05
 Reference value :  3.72507e-05
 Reference value :  3.72514e-05
 Reference value :  3.72523e-05
 Reference value :  3.72530e-05
 Reference value :  3.72540e-05
 Reference value :  3.72552e-05
 Reference value :  3.72574e-05
 Reference value :  3.72652e-05
 Reference value :  3.73152e-05
 Reference value :  3.74867e-05
 Reference value :  3.75000e-05
 Reference value :  3.75001e-05
 Reference value :  3.75001e-05
 Reference value :  3.75002e-05
 Reference value :  3.75003e-05
 Reference value :  3.75008e-05
 Reference value :  3.75016e-05
 Reference value :  3.75024e-05
 Reference value :  3.75034e-05
 Reference value :  3.75047e-05
 Reference value :  3.75062e-05
 Reference value :  3.75077e-05
 Reference value :  3.75109e-05
 Reference value :  3.75295e-05
 Reference value :  3.76524e-05
 Reference value :  3.77501e-05
 Reference value :  3.77502e-05
 Reference value :  3.77503e-05
 Reference value :  3.77510e-05
 Reference value :  3.77514e-05
 Reference value :  3.77530e-05
 Reference value :  3.77534e-05
 Reference value :  3.77545e-05
 Reference value :  3.77558e-05
 Reference value :  3.77603e-05
 Reference value :  3.78074e-05
 Reference value :  3.80000e-05
 Reference value :  3.80001e-05
 Reference value :  3.80002e-05
 Reference value :  3.80005e-05
 Reference value :  3.80016e-05
 Reference value :  3.80029e-05
 Reference value :  3.80045e-05
 Reference value :  3.80055e-05
 Reference value :  3.80085e-05
 Reference value :  3.80112e-05
 Reference value :  3.80143e-05
 Reference value :  3.80174e-05
 Reference value :  3.80456e-05
 Reference value :  3.80704e-05
 Reference value :  3.80984e-05
 Reference value :  3.82501e-05
 Reference value :  3.82502e-05
 Reference value :  3.82503e-05
 Reference value :  3.82514e-05
 Reference value :  3.82530e-05
 Reference value :  3.82546e-05
 Reference value :  3.82588e-05
 Reference value :  3.82857e-05
 Reference value :  3.85000e-05
 Reference value :  3.85013e-05
 Reference value :  3.85050e-05
 Reference value :  3.85073e-05
 Reference value :  3.85105e-05
 Reference value :  3.85448e-05
 Reference value :  3.86069e-05
 Reference value :  3.86501e-05
 Reference value :  3.87501e-05
 Reference value :  3.87502e-05
 Reference value :  3.87502e-05
 Reference value :  3.87504e-05
 Reference value :  3.87510e-05
 Reference value :  3.87514e-05
 Reference value :  3.87523e-05
 Reference value :  3.87534e-05
 Reference value :  3.87544e-05
 Reference value :  3.87556e-05
 Reference value :  3.87578e-05
 Reference value :  3.87674e-05
 Reference value :  3.88356e-05
 Reference value :  3.90000e-05
 Reference value :  3.90001e-05
 Reference value :  3.90002e-05
 Reference value :  3.90005e-05
 Reference value :  3.90012e-05
 Reference value :  3.90020e-05
 Reference value :  3.90029e-05
 Reference value :  3.90040e-05
 Reference value :  3.90050e-05
 Reference value :  3.90063e-05
 Reference value :  3.90085e-05
 Reference value :  3.90112e-05
 Reference value :  3.90122e-05
 Reference value :  3.90143e-05
 Reference value :  3.90153e-05
 Reference value :  3.90174e-05
 Reference value :  3.90208e-05
 Reference value :  3.90287e-05
 Reference value :  3.90367e-05
 Reference value :  3.90444e-05
 Reference value :  3.90542e-05
 Reference value :  3.90728e-05
 Reference value :  3.91287e-05
 Reference value :  3.92501e-05
 Reference value :  3.92502e-05
 Reference value :  3.92502e-05
 Reference value :  3.92503e-05
 Reference value :  3.92507e-05
 Reference value :  3.92514e-05
 Reference value :  3.92523e-05
 Reference value :  3.92530e-05
 Reference value :  3.92534e-05
 Reference value :  3.92546e-05
 Reference value :  3.92559e-05
 Reference value :  3.92588e-05
 Reference value :  3.92719e-05
 Reference value :  3.93690e-05
 Reference value :  3.95000e-05
 Reference value :  3.95001e-05
 Reference value :  3.95001e-05
 Reference value :  3.95002e-05
 Reference value :  3.95005e-05
 Reference value :  3.95012e-05
 Reference value :  3.95015e-05
 Reference value :  3.95023e-05
 Reference value :  3.95028e-05
 Reference value :  3.95039e-05
 Reference value :  3.95054e-05
 Reference value :  3.95060e-05
 Reference value :  3.95075e-05
 Reference value :  3.95092e-05
 Reference value :  3.95114e-05
 Reference value :  3.95221e-05
 Reference value :  3.96426e-05
 Reference value :  3.97501e-05
 Reference value :  3.97502e-05
 Reference value :  3.97503e-05
 Reference value :  3.97510e-05
 Reference value :  3.97519e-05
 Reference value :  3.97530e-05
 Reference value :  3.97534e-05
 Reference value :  3.97545e-05
 Reference value :  3.97558e-05
 Reference value :  3.97575e-05
 Reference value :  3.97596e-05
 Reference value :  3.97674e-05
 Reference value :  3.98789e-05
 Reference value :  4.00000e-05
 Reference value :  4.00001e-05
 Reference value :  4.00002e-05
 Reference value :  4.00008e-05
 Reference value :  4.00016e-05
 Reference value :  4.00024e-05
 Reference value :  4.00034e-05
 Reference value :  4.00044e-05
 Reference value :  4.00053e-05
 Reference value :  4.00076e-05
 Reference value :  4.00093e-05
 Reference value :  4.00102e-05
 Reference value :  4.00119e-05
 Reference value :  4.00134e-05
 Reference value :  4.00161e-05
 Reference value :  4.00184e-05
 Reference value :  4.00334e-05
 Reference value :  4.00835e-05
 Reference value :  4.02073e-05
 Reference value :  4.02501e-05
 Reference value :  4.02502e-05
 Reference value :  4.02503e-05
 Reference value :  4.02507e-05
 Reference value :  4.02514e-05
 Reference value :  4.02523e-05
 Reference value :  4.02534e-05
 Reference value :  4.02546e-05
 Reference value :  4.02560e-05
 Reference value :  4.02590e-05
 Reference value :  4.02728e-05
 Reference value :  4.03755e-05
 Reference value :  4.05000e-05
 Reference value :  4.05000e-05
 Reference value :  4.05001e-05
 Reference value :  4.05002e-05
 Reference value :  4.05008e-05
 Reference value :  4.05015e-05
 Reference value :  4.05023e-05
 Reference value :  4.05028e-05
 Reference value :  4.05039e-05
 Reference value :  4.05054e-05
 Reference value :  4.05060e-05
 Reference value :  4.05075e-05
 Reference value :  4.05092e-05
 Reference value :  4.05114e-05
 Reference value :  4.05315e-05
 Reference value :  4.07501e-05
 Reference value :  4.07501e-05
 Reference value :  4.07502e-05
 Reference value :  4.07503e-05
 Reference value :  4.07504e-05
 Reference value :  4.07510e-05
 Reference value :  4.07514e-05
 Reference value :  4.07523e-05
 Reference value :  4.07534e-05
 Reference value :  4.07545e-05
 Reference value :  4.07558e-05
 Reference value :  4.07575e-05
 Reference value :  4.07596e-05
 Reference value :  4.07746e-05
 Reference value :  4.08775e-05
 Reference value :  4.10001e-05
 Reference value :  4.10001e-05
 Reference value :  4.10001e-05
 Reference value :  4.10004e-05
 Reference value :  4.10011e-05
 Reference value :  4.10019e-05
 Reference value :  4.10028e-05
 Reference value :  4.10038e-05
 Reference value :  4.10047e-05
 Reference value :  4.10064e-05
 Reference value :  4.10094e-05
 Reference value :  4.10113e-05
 Reference value :  4.10128e-05
 Reference value :  4.10155e-05
 Reference value :  4.10177e-05
 Reference value :  4.10310e-05
 Reference value :  4.11493e-05
 Reference value :  4.12501e-05
 Reference value :  4.12502e-05
 Reference value :  4.12504e-05
 Reference value :  4.12514e-05
 Reference value :  4.12530e-05
 Reference value :  4.12540e-05
 Reference value :  4.12560e-05
 Reference value :  4.12618e-05
 Reference value :  4.13171e-05
 Reference value :  4.15000e-05
 Reference value :  4.15001e-05
 Reference value :  4.15003e-05
 Reference value :  4.15012e-05
 Reference value :  4.15019e-05
 Reference value :  4.15028e-05
 Reference value :  4.15046e-05
 Reference value :  4.15060e-05
 Reference value :  4.15075e-05
 Reference value :  4.15103e-05
 Reference value :  4.15315e-05
 Reference value :  4.17501e-05
 Reference value :  4.17502e-05
 Reference value :  4.17504e-05
 Reference value :  4.17514e-05
 Reference value :  4.17530e-05
 Reference value :  4.17540e-05
 Reference value :  4.17550e-05
 Reference value :  4.17566e-05
 Reference value :  4.17596e-05
 Reference value :  4.17748e-05
 Reference value :  4.19985e-05
 Reference value :  4.20001e-05
 Reference value :  4.20002e-05
 Reference value :  4.20005e-05
 Reference value :  4.20012e-05
 Reference value :  4.20020e-05
 Reference value :  4.20029e-05
 Reference value :  4.20039e-05
 Reference value :  4.20048e-05
 Reference value :  4.20066e-05
 Reference value :  4.20090e-05
 Reference value :  4.20142e-05
 Reference value :  4.20392e-05
 Reference value :  4.21581e-05
 Reference value :  4.22140e-05
 Reference value :  4.22502e-05
 Reference value :  4.22503e-05
 Reference value :  4.22510e-05
 Reference value :  4.22523e-05
 Reference value :  4.22545e-05
 Reference value :  4.22577e-05
 Reference value :  4.22750e-05
 Reference value :  4.24421e-05
 Reference value :  4.25000e-05
 Reference value :  4.25000e-05
 Reference value :  4.25000e-05
 Reference value :  4.25001e-05
 Reference value :  4.25001e-05
 Reference value :  4.25003e-05
 Reference value :  4.25016e-05
 Reference value :  4.25029e-05
 Reference value :  4.25040e-05
 Reference value :  4.25045e-05
 Reference value :  4.25055e-05
 Reference value :  4.25090e-05
 Reference value :  4.25224e-05
 Reference value :  4.25262e-05
 Reference value :  4.25291e-05
 Reference value :  4.25313e-05
 Reference value :  4.25345e-05
 Reference value :  4.25377e-05
 Reference value :  4.25398e-05
 Reference value :  4.25420e-05
 Reference value :  4.25504e-05
 Reference value :  4.25580e-05
 Reference value :  4.25769e-05
 Reference value :  4.26204e-05
 Reference value :  4.26682e-05
 Reference value :  4.26977e-05
 Reference value :  4.27267e-05
 Reference value :  4.27371e-05
 Reference value :  4.27501e-05
 Reference value :  4.27501e-05
 Reference value :  4.27502e-05
 Reference value :  4.27503e-05
 Reference value :  4.27504e-05
 Reference value :  4.27510e-05
 Reference value :  4.27519e-05
 Reference value :  4.27530e-05
 Reference value :  4.27534e-05
 Reference value :  4.27545e-05
 Reference value :  4.27573e-05
 Reference value :  4.27647e-05
 Reference value :  4.28114e-05
 Reference value :  4.30000e-05
 Reference value :  4.30001e-05
 Reference value :  4.30002e-05
 Reference value :  4.30005e-05
 Reference value :  4.30012e-05
 Reference value :  4.30019e-05
 Reference value :  4.30028e-05
 Reference value :  4.30039e-05
 Reference value :  4.30064e-05
 Reference value :  4.30088e-05
 Reference value :  4.30112e-05
 Reference value :  4.30137e-05
 Reference value :  4.30172e-05
 Reference value :  4.30487e-05
 Reference value :  4.32501e-05
 Reference value :  4.32502e-05
 Reference value :  4.32502e-05
 Reference value :  4.32503e-05
 Reference value :  4.32510e-05
 Reference value :  4.32519e-05
 Reference value :  4.32530e-05
 Reference value :  4.32534e-05
 Reference value :  4.32545e-05
 Reference value :  4.32558e-05
 Reference value :  4.32573e-05
 Reference value :  4.32609e-05
 Reference value :  4.32836e-05
 Reference value :  4.35000e-05
 Reference value :  4.35011e-05
 Reference value :  4.35045e-05
 Reference value :  4.35064e-05
 Reference value :  4.35092e-05
 Reference value :  4.35109e-05
 Reference value :  4.35125e-05
 Reference value :  4.35140e-05
 Reference value :  4.35168e-05
 Reference value :  4.35259e-05
 Reference value :  4.36117e-05
 Reference value :  4.37501e-05
 Reference value :  4.37502e-05
 Reference value :  4.37503e-05
 Reference value :  4.37507e-05
 Reference value :  4.37514e-05
 Reference value :  4.37523e-05
 Reference value :  4.37533e-05
 Reference value :  4.37544e-05
 Reference value :  4.37557e-05
 Reference value :  4.37602e-05
 Reference value :  4.38037e-05
 Reference value :  4.39851e-05
 Reference value :  4.40000e-05
 Reference value :  4.40001e-05
 Reference value :  4.40003e-05
 Reference value :  4.40008e-05
 Reference value :  4.40015e-05
 Reference value :  4.40028e-05
 Reference value :  4.40039e-05
 Reference value :  4.40054e-05
 Reference value :  4.40060e-05
 Reference value :  4.40075e-05
 Reference value :  4.40092e-05
 Reference value :  4.40114e-05
 Reference value :  4.40221e-05
 Reference value :  4.41419e-05
 Reference value :  4.42501e-05
 Reference value :  4.42502e-05
 Reference value :  4.42504e-05
 Reference value :  4.42514e-05
 Reference value :  4.42530e-05
 Reference value :  4.42534e-05
 Reference value :  4.42545e-05
 Reference value :  4.42558e-05
 Reference value :  4.42584e-05
 Reference value :  4.42611e-05
 Reference value :  4.42900e-05
 Reference value :  4.45000e-05
 Reference value :  4.45001e-05
 Reference value :  4.45001e-05
 Reference value :  4.45003e-05
 Reference value :  4.45008e-05
 Reference value :  4.45016e-05
 Reference value :  4.45024e-05
 Reference value :  4.45034e-05
 Reference value :  4.45044e-05
 Reference value :  4.45053e-05
 Reference value :  4.45076e-05
 Reference value :  4.45093e-05
 Reference value :  4.45102e-05
 Reference value :  4.45119e-05
 Reference value :  4.45136e-05
 Reference value :  4.45155e-05
 Reference value :  4.45177e-05
 Reference value :  4.45254e-05
 Reference value :  4.45564e-05
 Reference value :  4.45636e-05
 Reference value :  4.45753e-05
 Reference value :  4.45910e-05
 Reference value :  4.46475e-05
 Reference value :  4.47501e-05
 Reference value :  4.47501e-05
 Reference value :  4.47502e-05
 Reference value :  4.47503e-05
 Reference value :  4.47507e-05
 Reference value :  4.47514e-05
 Reference value :  4.47523e-05
 Reference value :  4.47535e-05
 Reference value :  4.47546e-05
 Reference value :  4.47574e-05
 Reference value :  4.47652e-05
 Reference value :  4.48728e-05
 Reference value :  4.50000e-05
 Reference value :  4.50001e-05
 Reference value :  4.50002e-05
 Reference value :  4.50003e-05
 Reference value :  4.50008e-05
 Reference value :  4.50016e-05
 Reference value :  4.50024e-05
 Reference value :  4.50034e-05
 Reference value :  4.50055e-05
 Reference value :  4.50062e-05
 Reference value :  4.50077e-05
 Reference value :  4.50109e-05
 Reference value :  4.50296e-05
 Reference value :  4.52501e-05
 Reference value :  4.52502e-05
 Reference value :  4.52503e-05
 Reference value :  4.52507e-05
 Reference value :  4.52514e-05
 Reference value :  4.52523e-05
 Reference value :  4.52534e-05
 Reference value :  4.52545e-05
 Reference value :  4.52558e-05
 Reference value :  4.52636e-05
 Reference value :  4.53566e-05
 Reference value :  4.55000e-05
 Reference value :  4.55001e-05
 Reference value :  4.55002e-05
 Reference value :  4.55008e-05
 Reference value :  4.55016e-05
 Reference value :  4.55029e-05
 Reference value :  4.55045e-05
 Reference value :  4.55055e-05
 Reference value :  4.55085e-05
 Reference value :  4.55112e-05
 Reference value :  4.55143e-05
 Reference value :  4.55174e-05
 Reference value :  4.55286e-05
 Reference value :  4.55719e-05
 Reference value :  4.56738e-05
 Reference value :  4.57501e-05
 Reference value :  4.57502e-05
 Reference value :  4.57504e-05
 Reference value :  4.57514e-05
 Reference value :  4.57530e-05
 Reference value :  4.57540e-05
 Reference value :  4.57552e-05
 Reference value :  4.57589e-05
 Reference value :  4.57866e-05
 Reference value :  4.60000e-05
 Reference value :  4.60002e-05
 Reference value :  4.60009e-05
 Reference value :  4.60019e-05
 Reference value :  4.60034e-05
 Reference value :  4.60058e-05
 Reference value :  4.60085e-05
 Reference value :  4.60118e-05
 Reference value :  4.60457e-05
 Reference value :  4.62501e-05
 Reference value :  4.62502e-05
 Reference value :  4.62504e-05
 Reference value :  4.62514e-05
 Reference value :  4.62530e-05
 Reference value :  4.62534e-05
 Reference value :  4.62545e-05
 Reference value :  4.62558e-05
 Reference value :  4.62636e-05
 Reference value :  4.63569e-05
 Reference value :  4.65000e-05
 Reference value :  4.65001e-05
 Reference value :  4.65003e-05
 Reference value :  4.65012e-05
 Reference value :  4.65020e-05
 Reference value :  4.65029e-05
 Reference value :  4.65045e-05
 Reference value :  4.65055e-05
 Reference value :  4.65085e-05
 Reference value :  4.65112e-05
 Reference value :  4.65132e-05
 Reference value :  4.65152e-05
 Reference value :  4.65174e-05
 Reference value :  4.65239e-05
 Reference value :  4.65360e-05
 Reference value :  4.65442e-05
 Reference value :  4.65606e-05
 Reference value :  4.65722e-05
 Reference value :  4.65835e-05
 Reference value :  4.66077e-05
 Reference value :  4.66736e-05
 Reference value :  4.67501e-05
 Reference value :  4.67501e-05
 Reference value :  4.67502e-05
 Reference value :  4.67503e-05
 Reference value :  4.67507e-05
 Reference value :  4.67514e-05
 Reference value :  4.67523e-05
 Reference value :  4.67534e-05
 Reference value :  4.67553e-05
 Reference value :  4.67588e-05
 Reference value :  4.67856e-05
 Reference value :  4.68420e-05
 Reference value :  4.68731e-05
 Reference value :  4.69147e-05
 Reference value :  4.69957e-05
 Reference value :  4.70000e-05
 Reference value :  4.70001e-05
 Reference value :  4.70002e-05
 Reference value :  4.70003e-05
 Reference value :  4.70008e-05
 Reference value :  4.70016e-05
 Reference value :  4.70024e-05
 Reference value :  4.70029e-05
 Reference value :  4.70040e-05
 Reference value :  4.70055e-05
 Reference value :  4.70069e-05
 Reference value :  4.70087e-05
 Reference value :  4.70155e-05
 Reference value :  4.70825e-05
 Reference value :  4.72501e-05
 Reference value :  4.72502e-05
 Reference value :  4.72503e-05
 Reference value :  4.72510e-05
 Reference value :  4.72519e-05
 Reference value :  4.72530e-05
 Reference value :  4.72540e-05
 Reference value :  4.72550e-05
 Reference value :  4.72566e-05
 Reference value :  4.72698e-05
 Reference value :  4.74571e-05
 Reference value :  4.75000e-05
 Reference value :  4.75001e-05
 Reference value :  4.75002e-05
 Reference value :  4.75008e-05
 Reference value :  4.75016e-05
 Reference value :  4.75029e-05
 Reference value :  4.75040e-05
 Reference value :  4.75050e-05
 Reference value :  4.75071e-05
 Reference value :  4.75100e-05
 Reference value :  4.75122e-05
 Reference value :  4.75143e-05
 Reference value :  4.75163e-05
 Reference value :  4.75208e-05
 Reference value :  4.75289e-05
 Reference value :  4.75337e-05
 Reference value :  4.75422e-05
 Reference value :  4.75513e-05
 Reference value :  4.75628e-05
 Reference value :  4.75887e-05
 Reference value :  4.77242e-05
 Reference value :  4.77501e-05
 Reference value :  4.77502e-05
 Reference value :  4.77503e-05
 Reference value :  4.77507e-05
 Reference value :  4.77514e-05
 Reference value :  4.77523e-05
 Reference value :  4.77534e-05
 Reference value :  4.77546e-05
 Reference value :  4.77559e-05
 Reference value :  4.77615e-05
 Reference value :  4.78134e-05
 Reference value :  4.80000e-05
 Reference value :  4.80001e-05
 Reference value :  4.80002e-05
 Reference value :  4.80005e-05
 Reference value :  4.80012e-05
 Reference value :  4.80015e-05
[...]
 Reference value :  1.65504e-04
 Reference value :  1.65505e-04
 Reference value :  1.65506e-04
 Reference value :  1.65508e-04
 Reference value :  1.65511e-04
 Reference value :  1.65512e-04
 Reference value :  1.65514e-04
 Reference value :  1.65515e-04
 Reference value :  1.65517e-04
 Reference value :  1.65521e-04
 Reference value :  1.65529e-04
 Reference value :  1.65569e-04
 Reference value :  1.65611e-04
 Reference value :  1.65680e-04
 Reference value :  1.65750e-04
 Reference value :  1.65750e-04
 Reference value :  1.65750e-04
 Reference value :  1.65750e-04
 Reference value :  1.65751e-04
 Reference value :  1.65753e-04
 Reference value :  1.65754e-04
 Reference value :  1.65755e-04
 Reference value :  1.65757e-04
 Reference value :  1.65772e-04
 Reference value :  1.66000e-04
 Reference value :  1.66000e-04
 Reference value :  1.66000e-04
 Reference value :  1.66000e-04
 Reference value :  1.66001e-04
 Reference value :  1.66001e-04
 Reference value :  1.66002e-04
 Reference value :  1.66002e-04
 Reference value :  1.66003e-04
 Reference value :  1.66004e-04
 Reference value :  1.66006e-04
 Reference value :  1.66006e-04
 Reference value :  1.66008e-04
 Reference value :  1.66010e-04
 Reference value :  1.66015e-04
 Reference value :  1.66047e-04
 Reference value :  1.66250e-04
 Reference value :  1.66250e-04
 Reference value :  1.66250e-04
 Reference value :  1.66250e-04
 Reference value :  1.66251e-04
 Reference value :  1.66251e-04
 Reference value :  1.66252e-04
 Reference value :  1.66253e-04
 Reference value :  1.66254e-04
 Reference value :  1.66256e-04
 Reference value :  1.66260e-04
 Reference value :  1.66282e-04
 Reference value :  1.66457e-04
 Reference value :  1.66500e-04
 Reference value :  1.66500e-04
 Reference value :  1.66500e-04
 Reference value :  1.66500e-04
 Reference value :  1.66501e-04
 Reference value :  1.66502e-04
 Reference value :  1.66502e-04
 Reference value :  1.66503e-04
 Reference value :  1.66504e-04
 Reference value :  1.66505e-04
 Reference value :  1.66506e-04
 Reference value :  1.66508e-04
 Reference value :  1.66511e-04
 Reference value :  1.66513e-04
 Reference value :  1.66515e-04
 Reference value :  1.66519e-04
 Reference value :  1.66537e-04
 Reference value :  1.66553e-04
 Reference value :  1.66566e-04
 Reference value :  1.66582e-04
 Reference value :  1.66654e-04
 Reference value :  1.66750e-04
 Reference value :  1.66750e-04
 Reference value :  1.66750e-04
 Reference value :  1.66751e-04
 Reference value :  1.66751e-04
 Reference value :  1.66752e-04
 Reference value :  1.66753e-04
 Reference value :  1.66755e-04
 Reference value :  1.66759e-04
 Reference value :  1.66813e-04
 Reference value :  1.67000e-04
 Reference value :  1.67000e-04
 Reference value :  1.67000e-04
 Reference value :  1.67001e-04
 Reference value :  1.67002e-04
 Reference value :  1.67003e-04
 Reference value :  1.67004e-04
 Reference value :  1.67006e-04
 Reference value :  1.67007e-04
 Reference value :  1.67009e-04
 Reference value :  1.67011e-04
 Reference value :  1.67022e-04
 Reference value :  1.67250e-04
 Reference value :  1.67250e-04
 Reference value :  1.67250e-04
 Reference value :  1.67251e-04
 Reference value :  1.67252e-04
 Reference value :  1.67253e-04
 Reference value :  1.67254e-04
 Reference value :  1.67255e-04
 Reference value :  1.67257e-04
 Reference value :  1.67260e-04
 Reference value :  1.67290e-04
 Reference value :  1.67500e-04
 Reference value :  1.67500e-04
 Reference value :  1.67500e-04
 Reference value :  1.67500e-04
 Reference value :  1.67501e-04
 Reference value :  1.67502e-04
 Reference value :  1.67502e-04
 Reference value :  1.67503e-04
 Reference value :  1.67504e-04
 Reference value :  1.67505e-04
 Reference value :  1.67508e-04
 Reference value :  1.67509e-04
 Reference value :  1.67510e-04
 Reference value :  1.67512e-04
 Reference value :  1.67513e-04
 Reference value :  1.67516e-04
 Reference value :  1.67518e-04
 Reference value :  1.67523e-04
 Reference value :  1.67550e-04
 Reference value :  1.67750e-04
 Reference value :  1.67750e-04
 Reference value :  1.67750e-04
 Reference value :  1.67751e-04
 Reference value :  1.67753e-04
 Reference value :  1.67755e-04
 Reference value :  1.67762e-04
 Reference value :  1.67872e-04
 Reference value :  1.68000e-04
 Reference value :  1.68000e-04
 Reference value :  1.68001e-04
 Reference value :  1.68002e-04
 Reference value :  1.68003e-04
 Reference value :  1.68005e-04
 Reference value :  1.68006e-04
 Reference value :  1.68008e-04
 Reference value :  1.68010e-04
 Reference value :  1.68015e-04
 Reference value :  1.68047e-04
 Reference value :  1.68250e-04
 Reference value :  1.68250e-04
 Reference value :  1.68250e-04
 Reference value :  1.68251e-04
 Reference value :  1.68251e-04
 Reference value :  1.68252e-04
 Reference value :  1.68253e-04
 Reference value :  1.68254e-04
 Reference value :  1.68256e-04
 Reference value :  1.68264e-04
 Reference value :  1.68500e-04
 Reference value :  1.68500e-04
 Reference value :  1.68501e-04
 Reference value :  1.68502e-04
 Reference value :  1.68503e-04
 Reference value :  1.68505e-04
 Reference value :  1.68508e-04
 Reference value :  1.68511e-04
 Reference value :  1.68514e-04
 Reference value :  1.68517e-04
 Reference value :  1.68536e-04
 Reference value :  1.68750e-04
 Reference value :  1.68750e-04
 Reference value :  1.68750e-04
 Reference value :  1.68751e-04
 Reference value :  1.68753e-04
 Reference value :  1.68754e-04
 Reference value :  1.68757e-04
 Reference value :  1.68787e-04
 Reference value :  1.69000e-04
 Reference value :  1.69000e-04
 Reference value :  1.69000e-04
 Reference value :  1.69001e-04
 Reference value :  1.69002e-04
 Reference value :  1.69003e-04
 Reference value :  1.69006e-04
 Reference value :  1.69007e-04
 Reference value :  1.69009e-04
 Reference value :  1.69015e-04
 Reference value :  1.69153e-04
 Reference value :  1.69250e-04
 Reference value :  1.69250e-04
 Reference value :  1.69250e-04
 Reference value :  1.69251e-04
 Reference value :  1.69253e-04
 Reference value :  1.69254e-04
 Reference value :  1.69256e-04
 Reference value :  1.69260e-04
 Reference value :  1.69307e-04
 Reference value :  1.69500e-04
 Reference value :  1.69500e-04
 Reference value :  1.69500e-04
 Reference value :  1.69501e-04
 Reference value :  1.69502e-04
 Reference value :  1.69503e-04
 Reference value :  1.69505e-04
 Reference value :  1.69506e-04
 Reference value :  1.69507e-04
 Reference value :  1.69509e-04
 Reference value :  1.69523e-04
 Reference value :  1.69733e-04
 Reference value :  1.69750e-04
 Reference value :  1.69750e-04
 Reference value :  1.69750e-04
 Reference value :  1.69751e-04
 Reference value :  1.69751e-04
 Reference value :  1.69752e-04
 Reference value :  1.69754e-04
 Reference value :  1.69755e-04
 Reference value :  1.69758e-04
 Reference value :  1.69775e-04
 Reference value :  1.70000e-04
 Reference value :  1.70000e-04
 Reference value :  1.70000e-04
 Reference value :  1.70000e-04
 Reference value :  1.70000e-04
 Reference value :  1.70000e-04
 Reference value :  1.70000e-04
 Reference value :  1.70001e-04
 Reference value :  1.70002e-04
 Reference value :  1.70003e-04
 Reference value :  1.70004e-04
 Reference value :  1.70004e-04
 Reference value :  1.70006e-04
 Reference value :  1.70009e-04
 Reference value :  1.70022e-04
 Reference value :  1.70026e-04
 Reference value :  1.70029e-04
 Reference value :  1.70034e-04
 Reference value :  1.70038e-04
 Reference value :  1.70043e-04
 Reference value :  1.70053e-04
 Reference value :  1.70069e-04
 Reference value :  1.70100e-04
 Reference value :  1.70167e-04
 Reference value :  1.70232e-04
 Reference value :  1.70250e-04
 Reference value :  1.70250e-04
 Reference value :  1.70250e-04
 Reference value :  1.70250e-04
 Reference value :  1.70251e-04
 Reference value :  1.70253e-04
 Reference value :  1.70254e-04
 Reference value :  1.70255e-04
 Reference value :  1.70259e-04
 Reference value :  1.70283e-04
 Reference value :  1.70451e-04
 Reference value :  1.70500e-04
 Reference value :  1.70500e-04
 Reference value :  1.70501e-04
 Reference value :  1.70501e-04
 Reference value :  1.70502e-04
 Reference value :  1.70503e-04
 Reference value :  1.70505e-04
 Reference value :  1.70506e-04
 Reference value :  1.70509e-04
 Reference value :  1.70511e-04
 Reference value :  1.70512e-04
 Reference value :  1.70515e-04
 Reference value :  1.70526e-04
 Reference value :  1.70580e-04
 Reference value :  1.70750e-04
 Reference value :  1.70750e-04
 Reference value :  1.70750e-04
 Reference value :  1.70751e-04
 Reference value :  1.70751e-04
 Reference value :  1.70753e-04
 Reference value :  1.70754e-04
 Reference value :  1.70755e-04
 Reference value :  1.70756e-04
 Reference value :  1.70757e-04
 Reference value :  1.70761e-04
 Reference value :  1.70773e-04
 Reference value :  1.70941e-04
 Reference value :  1.71000e-04
 Reference value :  1.71000e-04
 Reference value :  1.71000e-04
 Reference value :  1.71001e-04
 Reference value :  1.71002e-04
 Reference value :  1.71002e-04
 Reference value :  1.71003e-04
 Reference value :  1.71004e-04
 Reference value :  1.71005e-04
 Reference value :  1.71008e-04
 Reference value :  1.71009e-04
 Reference value :  1.71010e-04
 Reference value :  1.71012e-04
 Reference value :  1.71014e-04
 Reference value :  1.71015e-04
 Reference value :  1.71016e-04
 Reference value :  1.71019e-04
 Reference value :  1.71032e-04
 Reference value :  1.71109e-04
 Reference value :  1.71232e-04
 Reference value :  1.71250e-04
 Reference value :  1.71250e-04
 Reference value :  1.71250e-04
 Reference value :  1.71251e-04
 Reference value :  1.71251e-04
 Reference value :  1.71252e-04
 Reference value :  1.71253e-04
 Reference value :  1.71255e-04
 Reference value :  1.71257e-04
 Reference value :  1.71273e-04
 Reference value :  1.71346e-04
 Reference value :  1.71369e-04
 Reference value :  1.71442e-04
 Reference value :  1.71500e-04
 Reference value :  1.71500e-04
 Reference value :  1.71500e-04
 Reference value :  1.71500e-04
 Reference value :  1.71501e-04
 Reference value :  1.71502e-04
 Reference value :  1.71503e-04
 Reference value :  1.71504e-04
 Reference value :  1.71505e-04
 Reference value :  1.71506e-04
 Reference value :  1.71507e-04
 Reference value :  1.71509e-04
 Reference value :  1.71510e-04
 Reference value :  1.71517e-04
 Reference value :  1.71547e-04
 Reference value :  1.71750e-04
 Reference value :  1.71750e-04
 Reference value :  1.71750e-04
 Reference value :  1.71750e-04
 Reference value :  1.71750e-04
 Reference value :  1.71751e-04
 Reference value :  1.71751e-04
 Reference value :  1.71752e-04
 Reference value :  1.71753e-04
 Reference value :  1.71754e-04
 Reference value :  1.71756e-04
 Reference value :  1.71757e-04
 Reference value :  1.71760e-04
 Reference value :  1.71767e-04
 Reference value :  1.71819e-04
 Reference value :  1.72000e-04
 Reference value :  1.72000e-04
 Reference value :  1.72000e-04
 Reference value :  1.72000e-04
 Reference value :  1.72000e-04
 Reference value :  1.72001e-04
 Reference value :  1.72002e-04
 Reference value :  1.72002e-04
 Reference value :  1.72003e-04
 Reference value :  1.72004e-04
 Reference value :  1.72005e-04
 Reference value :  1.72006e-04
 Reference value :  1.72008e-04
 Reference value :  1.72009e-04
 Reference value :  1.72010e-04
 Reference value :  1.72012e-04
 Reference value :  1.72014e-04
 Reference value :  1.72015e-04
 Reference value :  1.72018e-04
 Reference value :  1.72025e-04
 Reference value :  1.72031e-04
 Reference value :  1.72043e-04
 Reference value :  1.72046e-04
 Reference value :  1.72053e-04
 Reference value :  1.72066e-04
 Reference value :  1.72086e-04
 Reference value :  1.72144e-04
 Reference value :  1.72250e-04
 Reference value :  1.72250e-04
 Reference value :  1.72250e-04
 Reference value :  1.72251e-04
 Reference value :  1.72251e-04
 Reference value :  1.72252e-04
 Reference value :  1.72253e-04
 Reference value :  1.72255e-04
 Reference value :  1.72257e-04
 Reference value :  1.72272e-04
 Reference value :  1.72484e-04
 Reference value :  1.72500e-04
 Reference value :  1.72500e-04
 Reference value :  1.72500e-04
 Reference value :  1.72501e-04
 Reference value :  1.72501e-04
 Reference value :  1.72502e-04
 Reference value :  1.72502e-04
 Reference value :  1.72503e-04
 Reference value :  1.72503e-04
 Reference value :  1.72505e-04
 Reference value :  1.72506e-04
 Reference value :  1.72508e-04
 Reference value :  1.72510e-04
 Reference value :  1.72516e-04
 Reference value :  1.72547e-04
 Reference value :  1.72750e-04
 Reference value :  1.72750e-04
 Reference value :  1.72750e-04
 Reference value :  1.72750e-04
 Reference value :  1.72751e-04
 Reference value :  1.72751e-04
 Reference value :  1.72752e-04
 Reference value :  1.72753e-04
 Reference value :  1.72754e-04
 Reference value :  1.72756e-04
 Reference value :  1.72760e-04
 Reference value :  1.72807e-04
 Reference value :  1.73000e-04
 Reference value :  1.73000e-04
 Reference value :  1.73000e-04
 Reference value :  1.73000e-04
 Reference value :  1.73001e-04
 Reference value :  1.73002e-04
 Reference value :  1.73003e-04
 Reference value :  1.73004e-04
 Reference value :  1.73005e-04
 Reference value :  1.73006e-04
 Reference value :  1.73008e-04
 Reference value :  1.73011e-04
 Reference value :  1.73013e-04
 Reference value :  1.73015e-04
 Reference value :  1.73024e-04
 Reference value :  1.73072e-04
 Reference value :  1.73250e-04
 Reference value :  1.73250e-04
 Reference value :  1.73250e-04
 Reference value :  1.73251e-04
 Reference value :  1.73253e-04
 Reference value :  1.73255e-04
 Reference value :  1.73262e-04
 Reference value :  1.73488e-04
 Reference value :  1.73500e-04
 Reference value :  1.73500e-04
 Reference value :  1.73501e-04
 Reference value :  1.73502e-04
 Reference value :  1.73503e-04
 Reference value :  1.73506e-04
 Reference value :  1.73509e-04
 Reference value :  1.73515e-04
 Reference value :  1.73652e-04
 Reference value :  1.73750e-04
 Reference value :  1.73750e-04
 Reference value :  1.73751e-04
 Reference value :  1.73751e-04
 Reference value :  1.73753e-04
 Reference value :  1.73754e-04
 Reference value :  1.73755e-04
 Reference value :  1.73757e-04
 Reference value :  1.73770e-04
 Reference value :  1.73958e-04
 Reference value :  1.74000e-04
 Reference value :  1.74000e-04
 Reference value :  1.74001e-04
 Reference value :  1.74002e-04
 Reference value :  1.74003e-04
 Reference value :  1.74004e-04
 Reference value :  1.74006e-04
 Reference value :  1.74008e-04
 Reference value :  1.74011e-04
 Reference value :  1.74013e-04
 Reference value :  1.74015e-04
 Reference value :  1.74019e-04
 Reference value :  1.74029e-04
 Reference value :  1.74070e-04
 Reference value :  1.74141e-04
 Reference value :  1.74241e-04
 Reference value :  1.74250e-04
 Reference value :  1.74250e-04
 Reference value :  1.74251e-04
 Reference value :  1.74253e-04
 Reference value :  1.74255e-04
 Reference value :  1.74259e-04
 Reference value :  1.74315e-04
 Reference value :  1.74500e-04
 Reference value :  1.74500e-04
 Reference value :  1.74501e-04
 Reference value :  1.74502e-04
 Reference value :  1.74503e-04
 Reference value :  1.74506e-04
 Reference value :  1.74508e-04
 Reference value :  1.74512e-04
 Reference value :  1.74582e-04
 Reference value :  1.74750e-04
 Reference value :  1.74750e-04
 Reference value :  1.74751e-04
 Reference value :  1.74753e-04
 Reference value :  1.74755e-04
 Reference value :  1.74760e-04
 Reference value :  1.74957e-04
 Reference value :  1.75000e-04
 Reference value :  1.75000e-04
 Reference value :  1.75002e-04
 Reference value :  1.75003e-04
 Reference value :  1.75004e-04
 Reference value :  1.75006e-04
 Reference value :  1.75011e-04
 Reference value :  1.75014e-04
 Reference value :  1.75017e-04
 Reference value :  1.75037e-04
 Reference value :  1.75066e-04
 Reference value :  1.75094e-04
 Reference value :  1.75250e-04
 Reference value :  1.75250e-04
 Reference value :  1.75250e-04
 Reference value :  1.75251e-04
 Reference value :  1.75253e-04
 Reference value :  1.75255e-04
 Reference value :  1.75261e-04
 Reference value :  1.75350e-04
 Reference value :  1.75388e-04
 Reference value :  1.75415e-04
 Reference value :  1.75500e-04
 Reference value :  1.75500e-04
 Reference value :  1.75501e-04
 Reference value :  1.75502e-04
 Reference value :  1.75503e-04
 Reference value :  1.75506e-04
 Reference value :  1.75507e-04
 Reference value :  1.75510e-04
 Reference value :  1.75545e-04
 Reference value :  1.75750e-04
 Reference value :  1.75750e-04
 Reference value :  1.75751e-04
 Reference value :  1.75752e-04
 Reference value :  1.75754e-04
 Reference value :  1.75756e-04
 Reference value :  1.75770e-04
 Reference value :  1.76000e-04
 Reference value :  1.76000e-04
 Reference value :  1.76001e-04
 Reference value :  1.76002e-04
 Reference value :  1.76003e-04
 Reference value :  1.76004e-04
 Reference value :  1.76006e-04
 Reference value :  1.76010e-04
 Reference value :  1.76012e-04
 Reference value :  1.76015e-04
 Reference value :  1.76019e-04
 Reference value :  1.76035e-04
 Reference value :  1.76043e-04
 Reference value :  1.76069e-04
 Reference value :  1.76132e-04
 Reference value :  1.76250e-04
 Reference value :  1.76250e-04
 Reference value :  1.76250e-04
 Reference value :  1.76251e-04
 Reference value :  1.76253e-04
 Reference value :  1.76255e-04
 Reference value :  1.76257e-04
 Reference value :  1.76286e-04
 Reference value :  1.76500e-04
 Reference value :  1.76500e-04
 Reference value :  1.76500e-04
 Reference value :  1.76502e-04
 Reference value :  1.76503e-04
 Reference value :  1.76505e-04
 Reference value :  1.76506e-04
 Reference value :  1.76508e-04
 Reference value :  1.76510e-04
 Reference value :  1.76547e-04
 Reference value :  1.76750e-04
 Reference value :  1.76750e-04
 Reference value :  1.76751e-04
 Reference value :  1.76751e-04
 Reference value :  1.76752e-04
 Reference value :  1.76753e-04
 Reference value :  1.76754e-04
 Reference value :  1.76756e-04
 Reference value :  1.76758e-04
 Reference value :  1.76767e-04
 Reference value :  1.77000e-04
 Reference value :  1.77000e-04
 Reference value :  1.77001e-04
 Reference value :  1.77002e-04
 Reference value :  1.77003e-04
 Reference value :  1.77005e-04
 Reference value :  1.77008e-04
 Reference value :  1.77010e-04
 Reference value :  1.77013e-04
 Reference value :  1.77016e-04
 Reference value :  1.77024e-04
 Reference value :  1.77250e-04
 Reference value :  1.77250e-04
 Reference value :  1.77251e-04
 Reference value :  1.77252e-04
 Reference value :  1.77254e-04
 Reference value :  1.77259e-04
 Reference value :  1.77376e-04
 Reference value :  1.77500e-04
 Reference value :  1.77500e-04
 Reference value :  1.77501e-04
 Reference value :  1.77502e-04
 Reference value :  1.77504e-04
 Reference value :  1.77506e-04
 Reference value :  1.77508e-04
 Reference value :  1.77517e-04
 Reference value :  1.77642e-04
 Reference value :  1.77750e-04
 Reference value :  1.77750e-04
 Reference value :  1.77752e-04
 Reference value :  1.77753e-04
 Reference value :  1.77755e-04
 Reference value :  1.77758e-04
 Reference value :  1.77775e-04
 Reference value :  1.78000e-04
 Reference value :  1.78000e-04
 Reference value :  1.78001e-04
 Reference value :  1.78002e-04
 Reference value :  1.78003e-04
 Reference value :  1.78005e-04
 Reference value :  1.78007e-04
 Reference value :  1.78009e-04
 Reference value :  1.78014e-04
 Reference value :  1.78041e-04
 Reference value :  1.78162e-04
 Reference value :  1.78214e-04
 Reference value :  1.78250e-04
 Reference value :  1.78250e-04
 Reference value :  1.78251e-04
 Reference value :  1.78253e-04
 Reference value :  1.78255e-04
 Reference value :  1.78262e-04
 Reference value :  1.78374e-04
No. of Data Rows : 25819
ngspice-44 done
