
Note: Compatibility modes selected: hs a


Circuit: ** sch_path: /home/ece/cace/sar-adc-using-sky130-pdk/runs/run_2025-09-12_04-58-57/parameters/sndr/run_0/sndr_enob_fom.sch

option SCALE: Scale is set to 1e-06 for instance and model parameters
option SCALE: Scale is set to 1e-06 for instance and model parameters
option SCALE: Scale is set to 1e-06 for instance and model parameters
option SCALE: Scale is set to 1e-06 for instance and model parameters
Doing analysis at TEMP = 27.000000 and TNOM = 27.000000

Using KLU as Direct Linear Solver
Operating point simulation skipped by 'uic',
  now using transient initial conditions.
 Reference value :  1.00000e-12
 Reference value :  1.02772e-12
 Reference value :  1.08316e-12
 Reference value :  1.19404e-12
 Reference value :  1.33846e-12
 Reference value :  1.62730e-12
 Reference value :  2.20497e-12
 Reference value :  3.04360e-12
 Reference value :  3.95032e-12
 Reference value :  5.17022e-12
 Reference value :  6.91590e-12
 Reference value :  1.00592e-11
 Reference value :  1.37521e-11
 Reference value :  2.04331e-11
 Reference value :  2.73570e-11
 Reference value :  3.62292e-11
 Reference value :  4.71745e-11
 Reference value :  6.43564e-11
 Reference value :  8.51989e-11
 Reference value :  1.00000e-10
 Reference value :  1.01207e-10
 Reference value :  1.03620e-10
 Reference value :  1.08447e-10
 Reference value :  1.18101e-10
 Reference value :  1.37408e-10
 Reference value :  1.76023e-10
 Reference value :  2.53252e-10
 Reference value :  3.90462e-10
 Reference value :  5.52171e-10
 Reference value :  8.06704e-10
 Reference value :  1.15899e-09
 Reference value :  1.65554e-09
 Reference value :  2.28940e-09
 Reference value :  3.15500e-09
 Reference value :  4.12898e-09
 Reference value :  4.99005e-09
 Reference value :  5.90763e-09
 Reference value :  7.05604e-09
 Reference value :  8.32629e-09
 Reference value :  9.69932e-09
 Reference value :  1.06347e-08
 Reference value :  1.15012e-08
 Reference value :  1.24955e-08
 Reference value :  1.35605e-08
 Reference value :  1.56906e-08
 Reference value :  1.88258e-08
 Reference value :  2.30630e-08
 Reference value :  2.76681e-08
 Reference value :  3.14857e-08
 Reference value :  3.55325e-08
 Reference value :  3.92903e-08
 Reference value :  4.34665e-08
 Reference value :  5.18189e-08
 Reference value :  6.63200e-08
 Reference value :  8.94008e-08
 Reference value :  1.35562e-07
 Reference value :  1.98286e-07
 Reference value :  2.50100e-07
 Reference value :  2.50110e-07
 Reference value :  2.50130e-07
 Reference value :  2.50170e-07
 Reference value :  2.50200e-07
 Reference value :  2.50201e-07
 Reference value :  2.50202e-07
 Reference value :  2.50204e-07
 Reference value :  2.50208e-07
 Reference value :  2.50216e-07
 Reference value :  2.50233e-07
 Reference value :  2.50267e-07
 Reference value :  2.50335e-07
 Reference value :  2.50428e-07
 Reference value :  2.50611e-07
 Reference value :  2.50792e-07
 Reference value :  2.51135e-07
 Reference value :  2.51559e-07
 Reference value :  2.52259e-07
 Reference value :  2.52900e-07
 Reference value :  2.53739e-07
 Reference value :  2.54754e-07
 Reference value :  2.55923e-07
 Reference value :  2.57000e-07
 Reference value :  2.58032e-07
 Reference value :  2.59197e-07
 Reference value :  2.60299e-07
 Reference value :  2.62113e-07
 Reference value :  2.64722e-07
 Reference value :  2.67420e-07
 Reference value :  2.72043e-07
 Reference value :  2.78805e-07
 Reference value :  2.92330e-07
 Reference value :  3.19380e-07
 Reference value :  3.70337e-07
 Reference value :  4.72251e-07
 Reference value :  5.00000e-07
 Reference value :  5.00010e-07
 Reference value :  5.00030e-07
 Reference value :  5.00070e-07
 Reference value :  5.00100e-07
 Reference value :  5.00104e-07
 Reference value :  5.00113e-07
 Reference value :  5.00130e-07
 Reference value :  5.00164e-07
 Reference value :  5.00232e-07
 Reference value :  5.00369e-07
 Reference value :  5.00560e-07
 Reference value :  5.00941e-07
 Reference value :  5.01536e-07
 Reference value :  5.02163e-07
 Reference value :  5.02854e-07
 Reference value :  5.03676e-07
 Reference value :  5.04428e-07
 Reference value :  5.05342e-07
 Reference value :  5.06300e-07
 Reference value :  5.07291e-07
 Reference value :  5.08691e-07
 Reference value :  5.10115e-07
 Reference value :  5.12675e-07
 Reference value :  5.15600e-07
 Reference value :  5.17748e-07
 Reference value :  5.20194e-07
 Reference value :  5.22649e-07
 Reference value :  5.25203e-07
 Reference value :  5.28411e-07
 Reference value :  5.33033e-07
 Reference value :  5.39375e-07
 Reference value :  5.48758e-07
 Reference value :  5.67523e-07
 Reference value :  5.94942e-07
 Reference value :  6.46001e-07
 Reference value :  7.44577e-07
 Reference value :  7.50100e-07
 Reference value :  7.50110e-07
 Reference value :  7.50130e-07
 Reference value :  7.50170e-07
 Reference value :  7.50200e-07
 Reference value :  7.50201e-07
 Reference value :  7.50202e-07
 Reference value :  7.50205e-07
 Reference value :  7.50212e-07
 Reference value :  7.50224e-07
 Reference value :  7.50249e-07
 Reference value :  7.50298e-07
 Reference value :  7.50396e-07
 Reference value :  7.50594e-07
 Reference value :  7.50984e-07
 Reference value :  7.51569e-07
 Reference value :  7.52239e-07
 Reference value :  7.52985e-07
 Reference value :  7.53829e-07
 Reference value :  7.54923e-07
 Reference value :  7.55816e-07
 Reference value :  7.56877e-07
 Reference value :  7.57785e-07
 Reference value :  7.58768e-07
 Reference value :  7.59882e-07
 Reference value :  7.61132e-07
 Reference value :  7.63633e-07
 Reference value :  7.66447e-07
 Reference value :  7.70881e-07
 Reference value :  7.76848e-07
 Reference value :  7.88782e-07
 Reference value :  8.12649e-07
 Reference value :  8.60150e-07
 Reference value :  9.55151e-07
 Reference value :  1.00000e-06
 Reference value :  1.00001e-06
 Reference value :  1.00003e-06
 Reference value :  1.00007e-06
 Reference value :  1.00010e-06
 Reference value :  1.00010e-06
 Reference value :  1.00011e-06
 Reference value :  1.00013e-06
 Reference value :  1.00016e-06
 Reference value :  1.00023e-06
 Reference value :  1.00037e-06
 Reference value :  1.00056e-06
 Reference value :  1.00094e-06
 Reference value :  1.00153e-06
 Reference value :  1.00216e-06
 Reference value :  1.00285e-06
 Reference value :  1.00357e-06
 Reference value :  1.00432e-06
 Reference value :  1.00516e-06
 Reference value :  1.00607e-06
 Reference value :  1.00702e-06
 Reference value :  1.00795e-06
 Reference value :  1.00904e-06
 Reference value :  1.01001e-06
 Reference value :  1.01108e-06
 Reference value :  1.01259e-06
 Reference value :  1.01427e-06
 Reference value :  1.01717e-06
 Reference value :  1.02013e-06
 Reference value :  1.02249e-06
 Reference value :  1.02462e-06
 Reference value :  1.02615e-06
 Reference value :  1.02771e-06
 Reference value :  1.02917e-06
 Reference value :  1.03074e-06
 Reference value :  1.03251e-06
 Reference value :  1.03500e-06
 Reference value :  1.03757e-06
 Reference value :  1.04224e-06
 Reference value :  1.04907e-06
 Reference value :  1.05961e-06
 Reference value :  1.07738e-06
 Reference value :  1.10517e-06
 Reference value :  1.14497e-06
 Reference value :  1.22456e-06
 Reference value :  1.25010e-06
 Reference value :  1.25011e-06
 Reference value :  1.25013e-06
 Reference value :  1.25017e-06
 Reference value :  1.25020e-06
 Reference value :  1.25020e-06
 Reference value :  1.25020e-06
 Reference value :  1.25021e-06
 Reference value :  1.25021e-06
 Reference value :  1.25022e-06
 Reference value :  1.25025e-06
 Reference value :  1.25030e-06
 Reference value :  1.25040e-06
 Reference value :  1.25059e-06
 Reference value :  1.25094e-06
 Reference value :  1.25156e-06
 Reference value :  1.25219e-06
 Reference value :  1.25296e-06
 Reference value :  1.25378e-06
 Reference value :  1.25486e-06
 Reference value :  1.25579e-06
 Reference value :  1.25687e-06
 Reference value :  1.25800e-06
 Reference value :  1.25906e-06
 Reference value :  1.26088e-06
 Reference value :  1.26261e-06
 Reference value :  1.26545e-06
 Reference value :  1.26899e-06
 Reference value :  1.27436e-06
 Reference value :  1.28510e-06
 Reference value :  1.30371e-06
 Reference value :  1.33785e-06
 Reference value :  1.40611e-06
 Reference value :  1.50000e-06
 Reference value :  1.50001e-06
 Reference value :  1.50003e-06
 Reference value :  1.50007e-06
 Reference value :  1.50010e-06
 Reference value :  1.50010e-06
 Reference value :  1.50011e-06
 Reference value :  1.50013e-06
 Reference value :  1.50016e-06
 Reference value :  1.50023e-06
 Reference value :  1.50037e-06
 Reference value :  1.50056e-06
 Reference value :  1.50093e-06
 Reference value :  1.50161e-06
 Reference value :  1.50223e-06
 Reference value :  1.50291e-06
 Reference value :  1.50362e-06
 Reference value :  1.50438e-06
 Reference value :  1.50523e-06
 Reference value :  1.50615e-06
 Reference value :  1.50719e-06
 Reference value :  1.50853e-06
 Reference value :  1.50991e-06
 Reference value :  1.51148e-06
 Reference value :  1.51304e-06
 Reference value :  1.51463e-06
 Reference value :  1.51657e-06
 Reference value :  1.51844e-06
 Reference value :  1.52078e-06
 Reference value :  1.52293e-06
 Reference value :  1.52722e-06
 Reference value :  1.53579e-06
 Reference value :  1.54892e-06
 Reference value :  1.57518e-06
 Reference value :  1.62770e-06
 Reference value :  1.73274e-06
 Reference value :  1.75010e-06
 Reference value :  1.75011e-06
 Reference value :  1.75013e-06
 Reference value :  1.75017e-06
 Reference value :  1.75020e-06
 Reference value :  1.75020e-06
 Reference value :  1.75020e-06
 Reference value :  1.75021e-06
 Reference value :  1.75021e-06
 Reference value :  1.75022e-06
 Reference value :  1.75025e-06
 Reference value :  1.75030e-06
 Reference value :  1.75039e-06
 Reference value :  1.75059e-06
 Reference value :  1.75093e-06
 Reference value :  1.75154e-06
 Reference value :  1.75216e-06
 Reference value :  1.75295e-06
 Reference value :  1.75376e-06
 Reference value :  1.75483e-06
 Reference value :  1.75576e-06
 Reference value :  1.75682e-06
 Reference value :  1.75776e-06
 Reference value :  1.75875e-06
 Reference value :  1.75989e-06
 Reference value :  1.76117e-06
 Reference value :  1.76372e-06
 Reference value :  1.76652e-06
 Reference value :  1.77104e-06
 Reference value :  1.77711e-06
 Reference value :  1.78924e-06
 Reference value :  1.81350e-06
 Reference value :  1.86202e-06
 Reference value :  1.95907e-06
 Reference value :  2.00000e-06
 Reference value :  2.00001e-06
 Reference value :  2.00003e-06
 Reference value :  2.00007e-06
 Reference value :  2.00010e-06
 Reference value :  2.00010e-06
 Reference value :  2.00011e-06
 Reference value :  2.00013e-06
 Reference value :  2.00016e-06
 Reference value :  2.00023e-06
 Reference value :  2.00037e-06
 Reference value :  2.00055e-06
 Reference value :  2.00092e-06
 Reference value :  2.00160e-06
 Reference value :  2.00223e-06
 Reference value :  2.00291e-06
 Reference value :  2.00363e-06
 Reference value :  2.00439e-06
 Reference value :  2.00523e-06
 Reference value :  2.00615e-06
 Reference value :  2.00717e-06
 Reference value :  2.00818e-06
 Reference value :  2.00924e-06
 Reference value :  2.01025e-06
 Reference value :  2.01134e-06
 Reference value :  2.01279e-06
 Reference value :  2.01462e-06
 Reference value :  2.01758e-06
 Reference value :  2.02043e-06
 Reference value :  2.02282e-06
 Reference value :  2.02486e-06
 Reference value :  2.02692e-06
 Reference value :  2.02893e-06
 Reference value :  2.03101e-06
 Reference value :  2.03338e-06
 Reference value :  2.03588e-06
 Reference value :  2.03883e-06
 Reference value :  2.04329e-06
 Reference value :  2.04943e-06
 Reference value :  2.05935e-06
 Reference value :  2.07517e-06
 Reference value :  2.10076e-06
 Reference value :  2.14421e-06
 Reference value :  2.20467e-06
 Reference value :  2.25010e-06
 Reference value :  2.25011e-06
 Reference value :  2.25013e-06
 Reference value :  2.25017e-06
 Reference value :  2.25020e-06
 Reference value :  2.25020e-06
 Reference value :  2.25020e-06
 Reference value :  2.25021e-06
 Reference value :  2.25021e-06
 Reference value :  2.25022e-06
 Reference value :  2.25025e-06
 Reference value :  2.25030e-06
 Reference value :  2.25039e-06
 Reference value :  2.25059e-06
 Reference value :  2.25092e-06
 Reference value :  2.25154e-06
 Reference value :  2.25216e-06
 Reference value :  2.25295e-06
 Reference value :  2.25375e-06
 Reference value :  2.25482e-06
 Reference value :  2.25579e-06
 Reference value :  2.25689e-06
 Reference value :  2.25799e-06
 Reference value :  2.25907e-06
 Reference value :  2.26086e-06
 Reference value :  2.26262e-06
 Reference value :  2.26544e-06
 Reference value :  2.26900e-06
 Reference value :  2.27435e-06
 Reference value :  2.28503e-06
 Reference value :  2.30368e-06
 Reference value :  2.33772e-06
 Reference value :  2.40578e-06
 Reference value :  2.49480e-06
 Reference value :  2.50000e-06
 Reference value :  2.50001e-06
 Reference value :  2.50003e-06
 Reference value :  2.50007e-06
 Reference value :  2.50010e-06
 Reference value :  2.50010e-06
 Reference value :  2.50011e-06
 Reference value :  2.50013e-06
 Reference value :  2.50016e-06
 Reference value :  2.50023e-06
 Reference value :  2.50037e-06
 Reference value :  2.50055e-06
 Reference value :  2.50092e-06
 Reference value :  2.50160e-06
 Reference value :  2.50223e-06
 Reference value :  2.50291e-06
 Reference value :  2.50363e-06
 Reference value :  2.50438e-06
 Reference value :  2.50524e-06
 Reference value :  2.50616e-06
 Reference value :  2.50719e-06
 Reference value :  2.50852e-06
 Reference value :  2.50991e-06
 Reference value :  2.51147e-06
 Reference value :  2.51303e-06
 Reference value :  2.51462e-06
 Reference value :  2.51655e-06
 Reference value :  2.51830e-06
 Reference value :  2.52027e-06
 Reference value :  2.52239e-06
 Reference value :  2.52664e-06
 Reference value :  2.53481e-06
 Reference value :  2.54849e-06
 Reference value :  2.57587e-06
 Reference value :  2.63061e-06
 Reference value :  2.74010e-06
 Reference value :  2.75010e-06
 Reference value :  2.75011e-06
 Reference value :  2.75013e-06
 Reference value :  2.75017e-06
 Reference value :  2.75020e-06
 Reference value :  2.75020e-06
 Reference value :  2.75020e-06
 Reference value :  2.75021e-06
 Reference value :  2.75021e-06
 Reference value :  2.75022e-06
 Reference value :  2.75025e-06
 Reference value :  2.75030e-06
 Reference value :  2.75039e-06
 Reference value :  2.75059e-06
 Reference value :  2.75093e-06
 Reference value :  2.75154e-06
 Reference value :  2.75216e-06
 Reference value :  2.75294e-06
 Reference value :  2.75375e-06
 Reference value :  2.75482e-06
 Reference value :  2.75575e-06
 Reference value :  2.75682e-06
 Reference value :  2.75776e-06
 Reference value :  2.75876e-06
 Reference value :  2.75989e-06
 Reference value :  2.76117e-06
 Reference value :  2.76371e-06
 Reference value :  2.76651e-06
 Reference value :  2.77103e-06
 Reference value :  2.77710e-06
 Reference value :  2.78924e-06
 Reference value :  2.81352e-06
 Reference value :  2.86208e-06
 Reference value :  2.95921e-06
 Reference value :  3.00000e-06
 Reference value :  3.00001e-06
 Reference value :  3.00003e-06
 Reference value :  3.00007e-06
 Reference value :  3.00010e-06
 Reference value :  3.00010e-06
 Reference value :  3.00011e-06
 Reference value :  3.00013e-06
 Reference value :  3.00016e-06
 Reference value :  3.00023e-06
 Reference value :  3.00037e-06
 Reference value :  3.00055e-06
 Reference value :  3.00092e-06
 Reference value :  3.00160e-06
 Reference value :  3.00223e-06
 Reference value :  3.00291e-06
 Reference value :  3.00363e-06
 Reference value :  3.00438e-06
 Reference value :  3.00523e-06
 Reference value :  3.00615e-06
 Reference value :  3.00710e-06
 Reference value :  3.00811e-06
 Reference value :  3.00918e-06
 Reference value :  3.01020e-06
 Reference value :  3.01129e-06
 Reference value :  3.01274e-06
 Reference value :  3.01454e-06
 Reference value :  3.01749e-06
 Reference value :  3.02028e-06
 Reference value :  3.02266e-06
 Reference value :  3.02457e-06
 Reference value :  3.02637e-06
 Reference value :  3.02839e-06
 Reference value :  3.03027e-06
 Reference value :  3.03255e-06
 Reference value :  3.03486e-06
 Reference value :  3.03824e-06
 Reference value :  3.04232e-06
 Reference value :  3.05010e-06
 Reference value :  3.06239e-06
 Reference value :  3.07684e-06
 Reference value :  3.09036e-06
 Reference value :  3.10043e-06
 Reference value :  3.11008e-06
 Reference value :  3.11814e-06
 Reference value :  3.12662e-06
 Reference value :  3.13537e-06
 Reference value :  3.14202e-06
 Reference value :  3.14947e-06
 Reference value :  3.16247e-06
 Reference value :  3.17924e-06
 Reference value :  3.20516e-06
 Reference value :  3.24416e-06
 Reference value :  3.25010e-06
 Reference value :  3.25011e-06
 Reference value :  3.25013e-06
 Reference value :  3.25017e-06
 Reference value :  3.25020e-06
 Reference value :  3.25020e-06
 Reference value :  3.25020e-06
 Reference value :  3.25021e-06
 Reference value :  3.25021e-06
 Reference value :  3.25022e-06
 Reference value :  3.25025e-06
 Reference value :  3.25030e-06
 Reference value :  3.25040e-06
 Reference value :  3.25059e-06
 Reference value :  3.25094e-06
 Reference value :  3.25155e-06
 Reference value :  3.25218e-06
 Reference value :  3.25295e-06
 Reference value :  3.25377e-06
 Reference value :  3.25483e-06
 Reference value :  3.25570e-06
 Reference value :  3.25672e-06
 Reference value :  3.25769e-06
 Reference value :  3.25870e-06
 Reference value :  3.26041e-06
 Reference value :  3.26200e-06
 Reference value :  3.26484e-06
 Reference value :  3.26793e-06
 Reference value :  3.27296e-06
 Reference value :  3.28196e-06
 Reference value :  3.29997e-06
 Reference value :  3.33594e-06
 Reference value :  3.37530e-06
 Reference value :  3.41191e-06
 Reference value :  3.43029e-06
 Reference value :  3.44819e-06
 Reference value :  3.46614e-06
 Reference value :  3.48919e-06
 Reference value :  3.50000e-06
 Reference value :  3.50001e-06
 Reference value :  3.50003e-06
 Reference value :  3.50007e-06
 Reference value :  3.50010e-06
 Reference value :  3.50010e-06
 Reference value :  3.50011e-06
 Reference value :  3.50013e-06
 Reference value :  3.50016e-06
 Reference value :  3.50023e-06
 Reference value :  3.50037e-06
 Reference value :  3.50055e-06
 Reference value :  3.50092e-06
 Reference value :  3.50160e-06
 Reference value :  3.50223e-06
 Reference value :  3.50291e-06
 Reference value :  3.50363e-06
 Reference value :  3.50438e-06
 Reference value :  3.50524e-06
 Reference value :  3.50616e-06
 Reference value :  3.50712e-06
 Reference value :  3.50847e-06
 Reference value :  3.50979e-06
 Reference value :  3.51141e-06
 Reference value :  3.51290e-06
 Reference value :  3.51445e-06
 Reference value :  3.51596e-06
 Reference value :  3.51767e-06
 Reference value :  3.51942e-06
 Reference value :  3.52134e-06
 Reference value :  3.52518e-06
 Reference value :  3.53279e-06
 Reference value :  3.54571e-06
 Reference value :  3.57157e-06
 Reference value :  3.62327e-06
 Reference value :  3.72667e-06
 Reference value :  3.75010e-06
 Reference value :  3.75011e-06
 Reference value :  3.75013e-06
 Reference value :  3.75017e-06
 Reference value :  3.75020e-06
 Reference value :  3.75020e-06
 Reference value :  3.75020e-06
 Reference value :  3.75021e-06
 Reference value :  3.75021e-06
 Reference value :  3.75022e-06
 Reference value :  3.75025e-06
 Reference value :  3.75030e-06
 Reference value :  3.75039e-06
 Reference value :  3.75059e-06
 Reference value :  3.75093e-06
 Reference value :  3.75154e-06
 Reference value :  3.75216e-06
 Reference value :  3.75294e-06
 Reference value :  3.75375e-06
 Reference value :  3.75482e-06
 Reference value :  3.75574e-06
 Reference value :  3.75681e-06
 Reference value :  3.75775e-06
 Reference value :  3.75874e-06
 Reference value :  3.75988e-06
 Reference value :  3.76114e-06
 Reference value :  3.76368e-06
 Reference value :  3.76647e-06
 Reference value :  3.77096e-06
 Reference value :  3.77697e-06
 Reference value :  3.78899e-06
 Reference value :  3.81302e-06
 Reference value :  3.86107e-06
 Reference value :  3.95719e-06
 Reference value :  4.00000e-06
 Reference value :  4.00001e-06
 Reference value :  4.00003e-06
 Reference value :  4.00007e-06
 Reference value :  4.00010e-06
 Reference value :  4.00010e-06
 Reference value :  4.00011e-06
 Reference value :  4.00013e-06
 Reference value :  4.00016e-06
 Reference value :  4.00023e-06
 Reference value :  4.00037e-06
 Reference value :  4.00055e-06
 Reference value :  4.00092e-06
 Reference value :  4.00160e-06
 Reference value :  4.00223e-06
 Reference value :  4.00291e-06
 Reference value :  4.00363e-06
 Reference value :  4.00439e-06
 Reference value :  4.00523e-06
 Reference value :  4.00615e-06
 Reference value :  4.00717e-06
 Reference value :  4.00818e-06
 Reference value :  4.00913e-06
 Reference value :  4.01013e-06
 Reference value :  4.01118e-06
 Reference value :  4.01254e-06
 Reference value :  4.01442e-06
 Reference value :  4.01728e-06
 Reference value :  4.02018e-06
 Reference value :  4.02255e-06
 Reference value :  4.02447e-06
 Reference value :  4.02627e-06
 Reference value :  4.02828e-06
 Reference value :  4.03017e-06
 Reference value :  4.03236e-06
 Reference value :  4.03473e-06
 Reference value :  4.03807e-06
 Reference value :  4.04203e-06
 Reference value :  4.04776e-06
 Reference value :  4.05369e-06
 Reference value :  4.05818e-06
 Reference value :  4.06248e-06
 Reference value :  4.06691e-06
 Reference value :  4.07188e-06
 Reference value :  4.07840e-06
 Reference value :  4.08509e-06
 Reference value :  4.09243e-06
 Reference value :  4.10010e-06
 Reference value :  4.11544e-06
 Reference value :  4.13585e-06
 Reference value :  4.15626e-06
 Reference value :  4.18071e-06
 Reference value :  4.20996e-06
 Reference value :  4.25010e-06
 Reference value :  4.25011e-06
 Reference value :  4.25013e-06
 Reference value :  4.25017e-06
 Reference value :  4.25020e-06
 Reference value :  4.25020e-06
 Reference value :  4.25020e-06
 Reference value :  4.25021e-06
 Reference value :  4.25021e-06
 Reference value :  4.25022e-06
 Reference value :  4.25025e-06
 Reference value :  4.25030e-06
 Reference value :  4.25040e-06
 Reference value :  4.25059e-06
 Reference value :  4.25094e-06
 Reference value :  4.25154e-06
 Reference value :  4.25218e-06
 Reference value :  4.25294e-06
 Reference value :  4.25376e-06
 Reference value :  4.25483e-06
 Reference value :  4.25570e-06
 Reference value :  4.25672e-06
 Reference value :  4.25769e-06
 Reference value :  4.25870e-06
 Reference value :  4.26041e-06
 Reference value :  4.26200e-06
 Reference value :  4.26485e-06
 Reference value :  4.26792e-06
 Reference value :  4.27298e-06
 Reference value :  4.28165e-06
 Reference value :  4.29900e-06
 Reference value :  4.33369e-06
 Reference value :  4.40308e-06
 Reference value :  4.50000e-06
 Reference value :  4.50001e-06
 Reference value :  4.50003e-06
 Reference value :  4.50007e-06
 Reference value :  4.50010e-06
 Reference value :  4.50010e-06
 Reference value :  4.50011e-06
 Reference value :  4.50013e-06
 Reference value :  4.50016e-06
 Reference value :  4.50023e-06
 Reference value :  4.50037e-06
 Reference value :  4.50056e-06
 Reference value :  4.50092e-06
 Reference value :  4.50161e-06
 Reference value :  4.50223e-06
 Reference value :  4.50286e-06
 Reference value :  4.50357e-06
 Reference value :  4.50431e-06
 Reference value :  4.50516e-06
 Reference value :  4.50606e-06
 Reference value :  4.50702e-06
 Reference value :  4.50838e-06
 Reference value :  4.50964e-06
 Reference value :  4.51115e-06
 Reference value :  4.51248e-06
 Reference value :  4.51388e-06
 Reference value :  4.51531e-06
 Reference value :  4.51699e-06
 Reference value :  4.51879e-06
 Reference value :  4.52066e-06
 Reference value :  4.52440e-06
 Reference value :  4.53187e-06
 Reference value :  4.54489e-06
 Reference value :  4.57093e-06
 Reference value :  4.62302e-06
 Reference value :  4.72719e-06
 Reference value :  4.75010e-06
 Reference value :  4.75011e-06
 Reference value :  4.75013e-06
 Reference value :  4.75017e-06
 Reference value :  4.75020e-06
 Reference value :  4.75020e-06
 Reference value :  4.75020e-06
 Reference value :  4.75021e-06
 Reference value :  4.75021e-06
 Reference value :  4.75022e-06
 Reference value :  4.75025e-06
 Reference value :  4.75030e-06
 Reference value :  4.75039e-06
 Reference value :  4.75059e-06
 Reference value :  4.75092e-06
 Reference value :  4.75154e-06
 Reference value :  4.75216e-06
 Reference value :  4.75294e-06
 Reference value :  4.75375e-06
 Reference value :  4.75481e-06
 Reference value :  4.75573e-06
 Reference value :  4.75680e-06
 Reference value :  4.75775e-06
 Reference value :  4.75874e-06
 Reference value :  4.75987e-06
 Reference value :  4.76114e-06
 Reference value :  4.76241e-06
 Reference value :  4.76421e-06
 Reference value :  4.76638e-06
 Reference value :  4.76914e-06
 Reference value :  4.77276e-06
 Reference value :  4.77787e-06
 Reference value :  4.78811e-06
 Reference value :  4.80454e-06
 Reference value :  4.83742e-06
 Reference value :  4.90316e-06
 Reference value :  5.00000e-06
 Reference value :  5.00001e-06
 Reference value :  5.00003e-06
 Reference value :  5.00007e-06
 Reference value :  5.00010e-06
 Reference value :  5.00010e-06
 Reference value :  5.00011e-06
 Reference value :  5.00013e-06
 Reference value :  5.00016e-06
 Reference value :  5.00023e-06
 Reference value :  5.00037e-06
 Reference value :  5.00055e-06
 Reference value :  5.00092e-06
 Reference value :  5.00160e-06
 Reference value :  5.00223e-06
 Reference value :  5.00291e-06
 Reference value :  5.00363e-06
 Reference value :  5.00440e-06
 Reference value :  5.00524e-06
 Reference value :  5.00615e-06
 Reference value :  5.00702e-06
 Reference value :  5.00792e-06
 Reference value :  5.00885e-06
 Reference value :  5.00984e-06
 Reference value :  5.01084e-06
 Reference value :  5.01222e-06
 Reference value :  5.01390e-06
 Reference value :  5.01542e-06
 Reference value :  5.01707e-06
 Reference value :  5.01876e-06
 Reference value :  5.02054e-06
 Reference value :  5.02231e-06
 Reference value :  5.02369e-06
 Reference value :  5.02503e-06
 Reference value :  5.02672e-06
 Reference value :  5.02835e-06
 Reference value :  5.02989e-06
 Reference value :  5.03195e-06
 Reference value :  5.03396e-06
 Reference value :  5.03687e-06
 Reference value :  5.04067e-06
 Reference value :  5.04546e-06
 Reference value :  5.04996e-06
 Reference value :  5.05452e-06
 Reference value :  5.05876e-06
 Reference value :  5.06264e-06
 Reference value :  5.06625e-06
 Reference value :  5.06974e-06
 Reference value :  5.07398e-06
 Reference value :  5.07990e-06
 Reference value :  5.08775e-06
 Reference value :  5.10081e-06
 Reference value :  5.11453e-06
 Reference value :  5.13601e-06
 Reference value :  5.15898e-06
 Reference value :  5.18051e-06
 Reference value :  5.19980e-06
 Reference value :  5.21432e-06
 Reference value :  5.22993e-06
 Reference value :  5.24737e-06
 Reference value :  5.25010e-06
 Reference value :  5.25011e-06
 Reference value :  5.25013e-06
 Reference value :  5.25017e-06
 Reference value :  5.25020e-06
 Reference value :  5.25020e-06
 Reference value :  5.25020e-06
 Reference value :  5.25021e-06
 Reference value :  5.25021e-06
 Reference value :  5.25022e-06
 Reference value :  5.25025e-06
 Reference value :  5.25030e-06
 Reference value :  5.25039e-06
 Reference value :  5.25059e-06
 Reference value :  5.25093e-06
 Reference value :  5.25154e-06
 Reference value :  5.25216e-06
 Reference value :  5.25294e-06
 Reference value :  5.25375e-06
 Reference value :  5.25481e-06
 Reference value :  5.25571e-06
 Reference value :  5.25676e-06
 Reference value :  5.25777e-06
 Reference value :  5.25880e-06
 Reference value :  5.26053e-06
 Reference value :  5.26217e-06
 Reference value :  5.26502e-06
 Reference value :  5.26824e-06
 Reference value :  5.27330e-06
 Reference value :  5.28344e-06
 Reference value :  5.30265e-06
 Reference value :  5.33969e-06
 Reference value :  5.41378e-06
 Reference value :  5.49445e-06
 Reference value :  5.50000e-06
 Reference value :  5.50001e-06
 Reference value :  5.50003e-06
 Reference value :  5.50007e-06
 Reference value :  5.50010e-06
 Reference value :  5.50010e-06
 Reference value :  5.50011e-06
 Reference value :  5.50013e-06
 Reference value :  5.50016e-06
 Reference value :  5.50023e-06
 Reference value :  5.50037e-06
 Reference value :  5.50055e-06
 Reference value :  5.50092e-06
 Reference value :  5.50160e-06
 Reference value :  5.50223e-06
 Reference value :  5.50286e-06
 Reference value :  5.50358e-06
 Reference value :  5.50432e-06
 Reference value :  5.50516e-06
 Reference value :  5.50607e-06
 Reference value :  5.50712e-06
 Reference value :  5.50846e-06
 Reference value :  5.50983e-06
 Reference value :  5.51138e-06
 Reference value :  5.51309e-06
 Reference value :  5.51464e-06
 Reference value :  5.51617e-06
 Reference value :  5.51781e-06
 Reference value :  5.51964e-06
 Reference value :  5.52171e-06
 Reference value :  5.52547e-06
 Reference value :  5.53095e-06
 Reference value :  5.54150e-06
 Reference value :  5.56116e-06
 Reference value :  5.59769e-06
 Reference value :  5.67038e-06
 Reference value :  5.75010e-06
 Reference value :  5.75011e-06
 Reference value :  5.75013e-06
 Reference value :  5.75017e-06
 Reference value :  5.75020e-06
 Reference value :  5.75020e-06
 Reference value :  5.75020e-06
 Reference value :  5.75021e-06
 Reference value :  5.75021e-06
 Reference value :  5.75022e-06
 Reference value :  5.75025e-06
 Reference value :  5.75030e-06
 Reference value :  5.75039e-06
 Reference value :  5.75059e-06
 Reference value :  5.75093e-06
 Reference value :  5.75154e-06
 Reference value :  5.75216e-06
 Reference value :  5.75294e-06
 Reference value :  5.75375e-06
 Reference value :  5.75481e-06
 Reference value :  5.75575e-06
 Reference value :  5.75683e-06
 Reference value :  5.75778e-06
 Reference value :  5.75878e-06
 Reference value :  5.75992e-06
 Reference value :  5.76120e-06
 Reference value :  5.76256e-06
 Reference value :  5.76429e-06
 Reference value :  5.76676e-06
 Reference value :  5.76951e-06
 Reference value :  5.77341e-06
 Reference value :  5.77877e-06
 Reference value :  5.78948e-06
 Reference value :  5.81091e-06
 Reference value :  5.85376e-06
 Reference value :  5.93947e-06
 Reference value :  6.00000e-06
 Reference value :  6.00001e-06
 Reference value :  6.00003e-06
 Reference value :  6.00007e-06
 Reference value :  6.00010e-06
 Reference value :  6.00010e-06
 Reference value :  6.00011e-06
 Reference value :  6.00013e-06
 Reference value :  6.00016e-06
 Reference value :  6.00023e-06
 Reference value :  6.00037e-06
 Reference value :  6.00055e-06
 Reference value :  6.00092e-06
 Reference value :  6.00160e-06
 Reference value :  6.00223e-06
 Reference value :  6.00291e-06
 Reference value :  6.00363e-06
 Reference value :  6.00438e-06
 Reference value :  6.00523e-06
 Reference value :  6.00613e-06
 Reference value :  6.00708e-06
 Reference value :  6.00794e-06
 Reference value :  6.00880e-06
 Reference value :  6.00981e-06
 Reference value :  6.01077e-06
 Reference value :  6.01209e-06
 Reference value :  6.01392e-06
 Reference value :  6.01570e-06
 Reference value :  6.01751e-06
 Reference value :  6.01955e-06
 Reference value :  6.02145e-06
 Reference value :  6.02334e-06
 Reference value :  6.02473e-06
 Reference value :  6.02600e-06
 Reference value :  6.02738e-06
 Reference value :  6.02876e-06
 Reference value :  6.03019e-06
 Reference value :  6.03182e-06
 Reference value :  6.03405e-06
 Reference value :  6.03659e-06
 Reference value :  6.04056e-06
 Reference value :  6.04442e-06
 Reference value :  6.04698e-06
 Reference value :  6.04990e-06
 Reference value :  6.05265e-06
 Reference value :  6.05580e-06
 Reference value :  6.06104e-06
 Reference value :  6.06686e-06
 Reference value :  6.07628e-06
 Reference value :  6.08736e-06
 Reference value :  6.10638e-06
 Reference value :  6.13521e-06
 Reference value :  6.17859e-06
 Reference value :  6.25010e-06
 Reference value :  6.25011e-06
 Reference value :  6.25013e-06
 Reference value :  6.25017e-06
 Reference value :  6.25020e-06
 Reference value :  6.25020e-06
 Reference value :  6.25020e-06
 Reference value :  6.25021e-06
 Reference value :  6.25021e-06
 Reference value :  6.25022e-06
 Reference value :  6.25025e-06
 Reference value :  6.25030e-06
 Reference value :  6.25040e-06
 Reference value :  6.25059e-06
 Reference value :  6.25094e-06
 Reference value :  6.25154e-06
 Reference value :  6.25218e-06
 Reference value :  6.25294e-06
 Reference value :  6.25376e-06
 Reference value :  6.25483e-06
 Reference value :  6.25578e-06
 Reference value :  6.25687e-06
 Reference value :  6.25797e-06
 Reference value :  6.25904e-06
 Reference value :  6.26082e-06
 Reference value :  6.26257e-06
 Reference value :  6.26537e-06
 Reference value :  6.26891e-06
 Reference value :  6.27419e-06
 Reference value :  6.28475e-06
 Reference value :  6.30307e-06
 Reference value :  6.33644e-06
 Reference value :  6.40317e-06
 Reference value :  6.50000e-06
 Reference value :  6.50001e-06
 Reference value :  6.50003e-06
 Reference value :  6.50007e-06
 Reference value :  6.50010e-06
 Reference value :  6.50010e-06
 Reference value :  6.50011e-06
 Reference value :  6.50013e-06
 Reference value :  6.50016e-06
 Reference value :  6.50023e-06
 Reference value :  6.50037e-06
 Reference value :  6.50056e-06
 Reference value :  6.50093e-06
 Reference value :  6.50161e-06
 Reference value :  6.50223e-06
 Reference value :  6.50291e-06
 Reference value :  6.50362e-06
 Reference value :  6.50438e-06
 Reference value :  6.50523e-06
 Reference value :  6.50615e-06
 Reference value :  6.50711e-06
 Reference value :  6.50847e-06
 Reference value :  6.50978e-06
 Reference value :  6.51141e-06
 Reference value :  6.51290e-06
 Reference value :  6.51445e-06
 Reference value :  6.51588e-06
 Reference value :  6.51746e-06
 Reference value :  6.51911e-06
 Reference value :  6.52101e-06
 Reference value :  6.52479e-06
 Reference value :  6.53047e-06
 Reference value :  6.54183e-06
 Reference value :  6.56455e-06
 Reference value :  6.60999e-06
 Reference value :  6.70087e-06
 Reference value :  6.75010e-06
 Reference value :  6.75011e-06
 Reference value :  6.75013e-06
 Reference value :  6.75017e-06
 Reference value :  6.75020e-06
 Reference value :  6.75020e-06
 Reference value :  6.75020e-06
 Reference value :  6.75021e-06
 Reference value :  6.75021e-06
 Reference value :  6.75022e-06
 Reference value :  6.75025e-06
 Reference value :  6.75030e-06
 Reference value :  6.75039e-06
 Reference value :  6.75059e-06
 Reference value :  6.75093e-06
 Reference value :  6.75154e-06
 Reference value :  6.75216e-06
 Reference value :  6.75294e-06
 Reference value :  6.75375e-06
 Reference value :  6.75481e-06
 Reference value :  6.75574e-06
 Reference value :  6.75682e-06
 Reference value :  6.75777e-06
 Reference value :  6.75877e-06
 Reference value :  6.75990e-06
 Reference value :  6.76118e-06
 Reference value :  6.76373e-06
 Reference value :  6.76654e-06
 Reference value :  6.77107e-06
 Reference value :  6.77719e-06
 Reference value :  6.78943e-06
 Reference value :  6.81391e-06
 Reference value :  6.86287e-06
 Reference value :  6.96080e-06
 Reference value :  7.00000e-06
 Reference value :  7.00001e-06
 Reference value :  7.00003e-06
 Reference value :  7.00007e-06
 Reference value :  7.00010e-06
 Reference value :  7.00010e-06
 Reference value :  7.00011e-06
 Reference value :  7.00013e-06
 Reference value :  7.00016e-06
 Reference value :  7.00023e-06
 Reference value :  7.00037e-06
 Reference value :  7.00055e-06
 Reference value :  7.00092e-06
 Reference value :  7.00160e-06
 Reference value :  7.00223e-06
 Reference value :  7.00291e-06
 Reference value :  7.00363e-06
 Reference value :  7.00439e-06
 Reference value :  7.00523e-06
 Reference value :  7.00615e-06
 Reference value :  7.00717e-06
 Reference value :  7.00818e-06
 Reference value :  7.00904e-06
 Reference value :  7.01006e-06
 Reference value :  7.01108e-06
 Reference value :  7.01240e-06
 Reference value :  7.01436e-06
 Reference value :  7.01723e-06
 Reference value :  7.02046e-06
 Reference value :  7.02288e-06
 Reference value :  7.02508e-06
 Reference value :  7.02725e-06
 Reference value :  7.02925e-06
 Reference value :  7.03145e-06
 Reference value :  7.03381e-06
 Reference value :  7.03638e-06
 Reference value :  7.03932e-06
 Reference value :  7.04319e-06
 Reference value :  7.04708e-06
 Reference value :  7.05082e-06
 Reference value :  7.05466e-06
 Reference value :  7.05831e-06
 Reference value :  7.06205e-06
 Reference value :  7.06647e-06
 Reference value :  7.07397e-06
 Reference value :  7.08132e-06
 Reference value :  7.08804e-06
 Reference value :  7.09643e-06
 Reference value :  7.10838e-06
 Reference value :  7.12891e-06
 Reference value :  7.16847e-06
 Reference value :  7.22859e-06
 Reference value :  7.25010e-06
 Reference value :  7.25011e-06
 Reference value :  7.25013e-06
 Reference value :  7.25017e-06
 Reference value :  7.25020e-06
 Reference value :  7.25020e-06
 Reference value :  7.25020e-06
 Reference value :  7.25021e-06
 Reference value :  7.25021e-06
 Reference value :  7.25022e-06
 Reference value :  7.25025e-06
 Reference value :  7.25030e-06
 Reference value :  7.25039e-06
 Reference value :  7.25059e-06
 Reference value :  7.25093e-06
 Reference value :  7.25154e-06
 Reference value :  7.25217e-06
 Reference value :  7.25294e-06
 Reference value :  7.25375e-06
 Reference value :  7.25482e-06
 Reference value :  7.25567e-06
 Reference value :  7.25668e-06
 Reference value :  7.25763e-06
 Reference value :  7.25863e-06
 Reference value :  7.26033e-06
 Reference value :  7.26189e-06
 Reference value :  7.26471e-06
 Reference value :  7.26771e-06
 Reference value :  7.27272e-06
 Reference value :  7.28109e-06
 Reference value :  7.29781e-06
 Reference value :  7.33126e-06
 Reference value :  7.39815e-06
 Reference value :  7.50000e-06
 Reference value :  7.50001e-06
 Reference value :  7.50003e-06
 Reference value :  7.50007e-06
 Reference value :  7.50010e-06
 Reference value :  7.50010e-06
 Reference value :  7.50011e-06
 Reference value :  7.50013e-06
 Reference value :  7.50016e-06
 Reference value :  7.50023e-06
 Reference value :  7.50037e-06
 Reference value :  7.50056e-06
 Reference value :  7.50093e-06
 Reference value :  7.50152e-06
 Reference value :  7.50214e-06
 Reference value :  7.50278e-06
 Reference value :  7.50356e-06
 Reference value :  7.50429e-06
 Reference value :  7.50514e-06
 Reference value :  7.50604e-06
 Reference value :  7.50709e-06
 Reference value :  7.50845e-06
 Reference value :  7.50982e-06
 Reference value :  7.51142e-06
 Reference value :  7.51279e-06
 Reference value :  7.51425e-06
 Reference value :  7.51568e-06
 Reference value :  7.51737e-06
 Reference value :  7.51916e-06
 Reference value :  7.52103e-06
 Reference value :  7.52478e-06
 Reference value :  7.53226e-06
 Reference value :  7.54516e-06
 Reference value :  7.57096e-06
 Reference value :  7.62255e-06
 Reference value :  7.72574e-06
 Reference value :  7.75010e-06
 Reference value :  7.75011e-06
 Reference value :  7.75013e-06
 Reference value :  7.75017e-06
 Reference value :  7.75020e-06
 Reference value :  7.75020e-06
 Reference value :  7.75020e-06
 Reference value :  7.75021e-06
 Reference value :  7.75021e-06
 Reference value :  7.75022e-06
 Reference value :  7.75025e-06
 Reference value :  7.75030e-06
 Reference value :  7.75039e-06
 Reference value :  7.75059e-06
 Reference value :  7.75093e-06
 Reference value :  7.75154e-06
 Reference value :  7.75217e-06
 Reference value :  7.75294e-06
 Reference value :  7.75375e-06
 Reference value :  7.75482e-06
 Reference value :  7.75571e-06
 Reference value :  7.75676e-06
 Reference value :  7.75767e-06
 Reference value :  7.75865e-06
 Reference value :  7.75977e-06
 Reference value :  7.76103e-06
 Reference value :  7.76230e-06
 Reference value :  7.76411e-06
 Reference value :  7.76619e-06
 Reference value :  7.76894e-06
 Reference value :  7.77245e-06
 Reference value :  7.77745e-06
 Reference value :  7.78746e-06
 Reference value :  7.80249e-06
 Reference value :  7.83254e-06
 Reference value :  7.89264e-06
 Reference value :  8.00000e-06
 Reference value :  8.00001e-06
 Reference value :  8.00003e-06
 Reference value :  8.00007e-06
 Reference value :  8.00010e-06
 Reference value :  8.00010e-06
 Reference value :  8.00011e-06
 Reference value :  8.00013e-06
 Reference value :  8.00016e-06
 Reference value :  8.00023e-06
 Reference value :  8.00037e-06
 Reference value :  8.00055e-06
 Reference value :  8.00092e-06
 Reference value :  8.00151e-06
 Reference value :  8.00214e-06
 Reference value :  8.00283e-06
 Reference value :  8.00356e-06
 Reference value :  8.00432e-06
 Reference value :  8.00516e-06
 Reference value :  8.00606e-06
 Reference value :  8.00699e-06
 Reference value :  8.00784e-06
 Reference value :  8.00873e-06
 Reference value :  8.00970e-06
 Reference value :  8.01068e-06
 Reference value :  8.01209e-06
 Reference value :  8.01357e-06
 Reference value :  8.01570e-06
 Reference value :  8.01723e-06
 Reference value :  8.01888e-06
 Reference value :  8.02076e-06
 Reference value :  8.02285e-06
 Reference value :  8.02508e-06
 Reference value :  8.02767e-06
 Reference value :  8.03103e-06
 Reference value :  8.03456e-06
 Reference value :  8.03981e-06
 Reference value :  8.04497e-06
 Reference value :  8.05125e-06
 Reference value :  8.05607e-06
 Reference value :  8.06119e-06
 Reference value :  8.06708e-06
 Reference value :  8.07375e-06
 Reference value :  8.08106e-06
 Reference value :  8.09569e-06
 Reference value :  8.11984e-06
 Reference value :  8.15714e-06
 Reference value :  8.22926e-06
 Reference value :  8.25010e-06
 Reference value :  8.25011e-06
 Reference value :  8.25013e-06
 Reference value :  8.25017e-06
 Reference value :  8.25020e-06
 Reference value :  8.25020e-06
 Reference value :  8.25020e-06
 Reference value :  8.25021e-06
 Reference value :  8.25021e-06
 Reference value :  8.25022e-06
 Reference value :  8.25025e-06
 Reference value :  8.25030e-06
 Reference value :  8.25039e-06
 Reference value :  8.25059e-06
 Reference value :  8.25097e-06
 Reference value :  8.25154e-06
 Reference value :  8.25221e-06
 Reference value :  8.25295e-06
 Reference value :  8.25379e-06
 Reference value :  8.25485e-06
 Reference value :  8.25616e-06
 Reference value :  8.25753e-06
 Reference value :  8.25911e-06
 Reference value :  8.26083e-06
 Reference value :  8.26340e-06
 Reference value :  8.26637e-06
 Reference value :  8.27042e-06
 Reference value :  8.27625e-06
 Reference value :  8.28792e-06
 Reference value :  8.31125e-06
 Reference value :  8.35751e-06
 Reference value :  8.45004e-06
 Reference value :  8.50000e-06
 Reference value :  8.50001e-06
 Reference value :  8.50003e-06
 Reference value :  8.50007e-06
 Reference value :  8.50010e-06
 Reference value :  8.50010e-06
 Reference value :  8.50011e-06
 Reference value :  8.50013e-06
 Reference value :  8.50016e-06
 Reference value :  8.50023e-06
 Reference value :  8.50037e-06
 Reference value :  8.50064e-06
 Reference value :  8.50111e-06
 Reference value :  8.50187e-06
 Reference value :  8.50271e-06
 Reference value :  8.50338e-06
 Reference value :  8.50424e-06
 Reference value :  8.50514e-06
 Reference value :  8.50606e-06
 Reference value :  8.50708e-06
 Reference value :  8.50859e-06
 Reference value :  8.51017e-06
 Reference value :  8.51269e-06
 Reference value :  8.51434e-06
 Reference value :  8.51623e-06
 Reference value :  8.51914e-06
 Reference value :  8.52188e-06
 Reference value :  8.52525e-06
 Reference value :  8.53198e-06
 Reference value :  8.53866e-06
 Reference value :  8.54353e-06
 Reference value :  8.54748e-06
 Reference value :  8.55114e-06
 Reference value :  8.55431e-06
 Reference value :  8.55687e-06
 Reference value :  8.55944e-06
 Reference value :  8.56219e-06
 Reference value :  8.56501e-06
 Reference value :  8.56892e-06
 Reference value :  8.57362e-06
 Reference value :  8.57856e-06
 Reference value :  8.58512e-06
 Reference value :  8.59616e-06
 Reference value :  8.61144e-06
 Reference value :  8.62289e-06
 Reference value :  8.63660e-06
 Reference value :  8.65159e-06
 Reference value :  8.67530e-06
 Reference value :  8.69959e-06
 Reference value :  8.74050e-06
 Reference value :  8.75010e-06
 Reference value :  8.75011e-06
 Reference value :  8.75013e-06
 Reference value :  8.75017e-06
 Reference value :  8.75020e-06
 Reference value :  8.75020e-06
 Reference value :  8.75020e-06
 Reference value :  8.75021e-06
 Reference value :  8.75021e-06
 Reference value :  8.75022e-06
 Reference value :  8.75025e-06
 Reference value :  8.75030e-06
 Reference value :  8.75039e-06
 Reference value :  8.75059e-06
 Reference value :  8.75097e-06
 Reference value :  8.75155e-06
 Reference value :  8.75222e-06
 Reference value :  8.75299e-06
 Reference value :  8.75379e-06
 Reference value :  8.75491e-06
 Reference value :  8.75585e-06
 Reference value :  8.75693e-06
 Reference value :  8.75794e-06
 Reference value :  8.75899e-06
 Reference value :  8.76069e-06
 Reference value :  8.76238e-06
 Reference value :  8.76510e-06
 Reference value :  8.76857e-06
 Reference value :  8.77365e-06
 Reference value :  8.78381e-06
 Reference value :  8.80115e-06
 Reference value :  8.83245e-06
 Reference value :  8.89401e-06
 Reference value :  9.00000e-06
 Reference value :  9.00001e-06
 Reference value :  9.00003e-06
 Reference value :  9.00007e-06
 Reference value :  9.00010e-06
 Reference value :  9.00010e-06
 Reference value :  9.00011e-06
 Reference value :  9.00013e-06
 Reference value :  9.00016e-06
 Reference value :  9.00023e-06
 Reference value :  9.00037e-06
 Reference value :  9.00056e-06
 Reference value :  9.00094e-06
 Reference value :  9.00154e-06
 Reference value :  9.00216e-06
 Reference value :  9.00285e-06
 Reference value :  9.00368e-06
 Reference value :  9.00443e-06
 Reference value :  9.00531e-06
 Reference value :  9.00625e-06
 Reference value :  9.00722e-06
 Reference value :  9.00865e-06
 Reference value :  9.01002e-06
 Reference value :  9.01253e-06
 Reference value :  9.01561e-06
 Reference value :  9.01779e-06
 Reference value :  9.02029e-06
 Reference value :  9.02275e-06
 Reference value :  9.02534e-06
 Reference value :  9.02846e-06
 Reference value :  9.03339e-06
 Reference value :  9.04022e-06
 Reference value :  9.05007e-06
 Reference value :  9.06976e-06
 Reference value :  9.09819e-06
 Reference value :  9.15061e-06
 Reference value :  9.25010e-06
 Reference value :  9.25011e-06
 Reference value :  9.25013e-06
 Reference value :  9.25017e-06
 Reference value :  9.25020e-06
 Reference value :  9.25020e-06
 Reference value :  9.25020e-06
 Reference value :  9.25021e-06
 Reference value :  9.25021e-06
 Reference value :  9.25022e-06
 Reference value :  9.25025e-06
 Reference value :  9.25030e-06
 Reference value :  9.25039e-06
 Reference value :  9.25059e-06
 Reference value :  9.25097e-06
 Reference value :  9.25156e-06
 Reference value :  9.25222e-06
 Reference value :  9.25298e-06
 Reference value :  9.25382e-06
 Reference value :  9.25491e-06
 Reference value :  9.25580e-06
 Reference value :  9.25686e-06
 Reference value :  9.25777e-06
 Reference value :  9.25875e-06
 Reference value :  9.25992e-06
 Reference value :  9.26120e-06
 Reference value :  9.26377e-06
 Reference value :  9.26658e-06
 Reference value :  9.27111e-06
 Reference value :  9.27720e-06
 Reference value :  9.28937e-06
 Reference value :  9.31372e-06
 Reference value :  9.36242e-06
 Reference value :  9.45982e-06
 Reference value :  9.50000e-06
 Reference value :  9.50001e-06
 Reference value :  9.50003e-06
 Reference value :  9.50007e-06
 Reference value :  9.50010e-06
 Reference value :  9.50010e-06
 Reference value :  9.50011e-06
 Reference value :  9.50013e-06
 Reference value :  9.50016e-06
 Reference value :  9.50023e-06
 Reference value :  9.50037e-06
 Reference value :  9.50056e-06
 Reference value :  9.50094e-06
 Reference value :  9.50153e-06
 Reference value :  9.50216e-06
 Reference value :  9.50285e-06
 Reference value :  9.50357e-06
 Reference value :  9.50432e-06
 Reference value :  9.50516e-06
 Reference value :  9.50607e-06
 Reference value :  9.50702e-06
 Reference value :  9.50795e-06
 Reference value :  9.50904e-06
 Reference value :  9.51001e-06
 Reference value :  9.51108e-06
 Reference value :  9.51259e-06
 Reference value :  9.51428e-06
 Reference value :  9.51717e-06
 Reference value :  9.52014e-06
 Reference value :  9.52249e-06
 Reference value :  9.52475e-06
 Reference value :  9.52634e-06
 Reference value :  9.52795e-06
 Reference value :  9.52955e-06
 Reference value :  9.53121e-06
 Reference value :  9.53299e-06
 Reference value :  9.53545e-06
 Reference value :  9.53815e-06
 Reference value :  9.54283e-06
 Reference value :  9.54933e-06
 Reference value :  9.55923e-06
 Reference value :  9.57606e-06
 Reference value :  9.60457e-06
 Reference value :  9.64313e-06
 Reference value :  9.72023e-06
 Reference value :  9.75010e-06
 Reference value :  9.75011e-06
 Reference value :  9.75013e-06
 Reference value :  9.75017e-06
 Reference value :  9.75020e-06
 Reference value :  9.75020e-06
 Reference value :  9.75020e-06
 Reference value :  9.75021e-06
 Reference value :  9.75021e-06
 Reference value :  9.75022e-06
 Reference value :  9.75025e-06
 Reference value :  9.75030e-06
 Reference value :  9.75040e-06
 Reference value :  9.75059e-06
 Reference value :  9.75094e-06
 Reference value :  9.75156e-06
 Reference value :  9.75219e-06
 Reference value :  9.75296e-06
 Reference value :  9.75378e-06
 Reference value :  9.75486e-06
 Reference value :  9.75579e-06
 Reference value :  9.75687e-06
 Reference value :  9.75800e-06
 Reference value :  9.75905e-06
 Reference value :  9.76086e-06
 Reference value :  9.76258e-06
 Reference value :  9.76540e-06
 Reference value :  9.76894e-06
 Reference value :  9.77427e-06
 Reference value :  9.78491e-06
 Reference value :  9.80294e-06
 Reference value :  9.83593e-06
 Reference value :  9.90193e-06
 Reference value :  1.00000e-05
 Reference value :  1.00000e-05
 Reference value :  1.00000e-05
 Reference value :  1.00001e-05
 Reference value :  1.00001e-05
 Reference value :  1.00001e-05
 Reference value :  1.00001e-05
 Reference value :  1.00001e-05
 Reference value :  1.00002e-05
 Reference value :  1.00002e-05
 Reference value :  1.00004e-05
 Reference value :  1.00006e-05
 Reference value :  1.00009e-05
 Reference value :  1.00016e-05
 Reference value :  1.00022e-05
 Reference value :  1.00029e-05
 Reference value :  1.00036e-05
 Reference value :  1.00044e-05
 Reference value :  1.00052e-05
 Reference value :  1.00062e-05
 Reference value :  1.00072e-05
 Reference value :  1.00085e-05
 Reference value :  1.00099e-05
 Reference value :  1.00115e-05
 Reference value :  1.00130e-05
 Reference value :  1.00146e-05
 Reference value :  1.00166e-05
 Reference value :  1.00185e-05
 Reference value :  1.00208e-05
 Reference value :  1.00229e-05
 Reference value :  1.00273e-05
 Reference value :  1.00358e-05
 Reference value :  1.00491e-05
 Reference value :  1.00756e-05
 Reference value :  1.01286e-05
 Reference value :  1.02345e-05
 Reference value :  1.02501e-05
 Reference value :  1.02501e-05
 Reference value :  1.02501e-05
 Reference value :  1.02502e-05
 Reference value :  1.02502e-05
 Reference value :  1.02502e-05
 Reference value :  1.02502e-05
 Reference value :  1.02502e-05
 Reference value :  1.02502e-05
 Reference value :  1.02502e-05
 Reference value :  1.02502e-05
 Reference value :  1.02503e-05
 Reference value :  1.02504e-05
 Reference value :  1.02506e-05
 Reference value :  1.02509e-05
 Reference value :  1.02515e-05
 Reference value :  1.02522e-05
 Reference value :  1.02529e-05
 Reference value :  1.02538e-05
 Reference value :  1.02548e-05
 Reference value :  1.02558e-05
 Reference value :  1.02568e-05
 Reference value :  1.02578e-05
 Reference value :  1.02587e-05
 Reference value :  1.02599e-05
 Reference value :  1.02612e-05
 Reference value :  1.02637e-05
 Reference value :  1.02665e-05
 Reference value :  1.02710e-05
 Reference value :  1.02771e-05
 Reference value :  1.02892e-05
 Reference value :  1.03134e-05
 Reference value :  1.03618e-05
 Reference value :  1.04586e-05
 Reference value :  1.05000e-05
 Reference value :  1.05000e-05
 Reference value :  1.05000e-05
 Reference value :  1.05001e-05
 Reference value :  1.05001e-05
 Reference value :  1.05001e-05
 Reference value :  1.05001e-05
 Reference value :  1.05001e-05
 Reference value :  1.05002e-05
 Reference value :  1.05002e-05
 Reference value :  1.05004e-05
 Reference value :  1.05006e-05
 Reference value :  1.05009e-05
 Reference value :  1.05016e-05
 Reference value :  1.05022e-05
 Reference value :  1.05029e-05
 Reference value :  1.05036e-05
 Reference value :  1.05044e-05
 Reference value :  1.05052e-05
 Reference value :  1.05061e-05
 Reference value :  1.05072e-05
 Reference value :  1.05082e-05
 Reference value :  1.05092e-05
 Reference value :  1.05103e-05
 Reference value :  1.05113e-05
 Reference value :  1.05128e-05
 Reference value :  1.05146e-05
 Reference value :  1.05176e-05
 Reference value :  1.05204e-05
 Reference value :  1.05228e-05
 Reference value :  1.05249e-05
 Reference value :  1.05271e-05
 Reference value :  1.05291e-05
 Reference value :  1.05312e-05
 Reference value :  1.05335e-05
 Reference value :  1.05360e-05
 Reference value :  1.05389e-05
 Reference value :  1.05431e-05
 Reference value :  1.05489e-05
 Reference value :  1.05580e-05
 Reference value :  1.05720e-05
 Reference value :  1.05942e-05
 Reference value :  1.06307e-05
 Reference value :  1.06954e-05
 Reference value :  1.07501e-05
 Reference value :  1.07501e-05
 Reference value :  1.07501e-05
 Reference value :  1.07502e-05
 Reference value :  1.07502e-05
 Reference value :  1.07502e-05
 Reference value :  1.07502e-05
 Reference value :  1.07502e-05
 Reference value :  1.07502e-05
 Reference value :  1.07502e-05
 Reference value :  1.07502e-05
 Reference value :  1.07503e-05
 Reference value :  1.07504e-05
 Reference value :  1.07506e-05
 Reference value :  1.07509e-05
 Reference value :  1.07515e-05
 Reference value :  1.07522e-05
 Reference value :  1.07529e-05
 Reference value :  1.07538e-05
 Reference value :  1.07548e-05
 Reference value :  1.07558e-05
 Reference value :  1.07569e-05
 Reference value :  1.07580e-05
 Reference value :  1.07591e-05
 Reference value :  1.07608e-05
 Reference value :  1.07626e-05
 Reference value :  1.07654e-05
 Reference value :  1.07690e-05
 Reference value :  1.07743e-05
 Reference value :  1.07849e-05
 Reference value :  1.08032e-05
 Reference value :  1.08365e-05
 Reference value :  1.09031e-05
 Reference value :  1.09926e-05
 Reference value :  1.10000e-05
 Reference value :  1.10000e-05
 Reference value :  1.10000e-05
 Reference value :  1.10001e-05
 Reference value :  1.10001e-05
 Reference value :  1.10001e-05
 Reference value :  1.10001e-05
 Reference value :  1.10001e-05
 Reference value :  1.10002e-05
 Reference value :  1.10002e-05
 Reference value :  1.10004e-05
 Reference value :  1.10006e-05
 Reference value :  1.10009e-05
 Reference value :  1.10016e-05
 Reference value :  1.10022e-05
 Reference value :  1.10029e-05
 Reference value :  1.10036e-05
 Reference value :  1.10044e-05
 Reference value :  1.10052e-05
 Reference value :  1.10062e-05
 Reference value :  1.10072e-05
 Reference value :  1.10085e-05
 Reference value :  1.10099e-05
 Reference value :  1.10115e-05
 Reference value :  1.10130e-05
 Reference value :  1.10146e-05
 Reference value :  1.10166e-05
 Reference value :  1.10183e-05
 Reference value :  1.10203e-05
 Reference value :  1.10224e-05
 Reference value :  1.10266e-05
 Reference value :  1.10348e-05
 Reference value :  1.10484e-05
 Reference value :  1.10758e-05
 Reference value :  1.11304e-05
 Reference value :  1.12397e-05
 Reference value :  1.12501e-05
 Reference value :  1.12501e-05
 Reference value :  1.12501e-05
 Reference value :  1.12502e-05
 Reference value :  1.12502e-05
 Reference value :  1.12502e-05
 Reference value :  1.12502e-05
 Reference value :  1.12502e-05
 Reference value :  1.12502e-05
 Reference value :  1.12502e-05
 Reference value :  1.12502e-05
 Reference value :  1.12503e-05
 Reference value :  1.12504e-05
 Reference value :  1.12506e-05
 Reference value :  1.12509e-05
 Reference value :  1.12515e-05
 Reference value :  1.12522e-05
 Reference value :  1.12529e-05
 Reference value :  1.12538e-05
 Reference value :  1.12548e-05
 Reference value :  1.12558e-05
 Reference value :  1.12568e-05
 Reference value :  1.12578e-05
 Reference value :  1.12588e-05
 Reference value :  1.12599e-05
 Reference value :  1.12612e-05
 Reference value :  1.12637e-05
 Reference value :  1.12665e-05
 Reference value :  1.12711e-05
 Reference value :  1.12772e-05
 Reference value :  1.12893e-05
 Reference value :  1.13137e-05
 Reference value :  1.13625e-05
 Reference value :  1.14600e-05
 Reference value :  1.15000e-05
 Reference value :  1.15000e-05
 Reference value :  1.15000e-05
 Reference value :  1.15001e-05
 Reference value :  1.15001e-05
 Reference value :  1.15001e-05
 Reference value :  1.15001e-05
 Reference value :  1.15001e-05
 Reference value :  1.15002e-05
 Reference value :  1.15002e-05
 Reference value :  1.15004e-05
 Reference value :  1.15006e-05
 Reference value :  1.15009e-05
 Reference value :  1.15016e-05
 Reference value :  1.15022e-05
 Reference value :  1.15029e-05
 Reference value :  1.15036e-05
 Reference value :  1.15044e-05
 Reference value :  1.15052e-05
 Reference value :  1.15061e-05
 Reference value :  1.15071e-05
 Reference value :  1.15081e-05
 Reference value :  1.15092e-05
 Reference value :  1.15102e-05
 Reference value :  1.15113e-05
 Reference value :  1.15127e-05
 Reference value :  1.15145e-05
 Reference value :  1.15175e-05
 Reference value :  1.15203e-05
 Reference value :  1.15227e-05
 Reference value :  1.15246e-05
 Reference value :  1.15264e-05
 Reference value :  1.15284e-05
 Reference value :  1.15303e-05
 Reference value :  1.15325e-05
 Reference value :  1.15347e-05
 Reference value :  1.15381e-05
 Reference value :  1.15418e-05
 Reference value :  1.15492e-05
 Reference value :  1.15610e-05
 Reference value :  1.15739e-05
 Reference value :  1.15860e-05
 Reference value :  1.15996e-05
 Reference value :  1.16090e-05
 Reference value :  1.16178e-05
 Reference value :  1.16299e-05
 Reference value :  1.16384e-05
 Reference value :  1.16468e-05
 Reference value :  1.16540e-05
 Reference value :  1.16621e-05
 Reference value :  1.16784e-05
 Reference value :  1.16946e-05
 Reference value :  1.17228e-05
 Reference value :  1.17501e-05
 Reference value :  1.17501e-05
 Reference value :  1.17501e-05
 Reference value :  1.17502e-05
 Reference value :  1.17502e-05
 Reference value :  1.17502e-05
 Reference value :  1.17502e-05
 Reference value :  1.17502e-05
 Reference value :  1.17502e-05
 Reference value :  1.17502e-05
 Reference value :  1.17502e-05
 Reference value :  1.17503e-05
 Reference value :  1.17504e-05
 Reference value :  1.17506e-05
 Reference value :  1.17509e-05
 Reference value :  1.17515e-05
 Reference value :  1.17522e-05
 Reference value :  1.17529e-05
 Reference value :  1.17538e-05
 Reference value :  1.17548e-05
 Reference value :  1.17557e-05
 Reference value :  1.17567e-05
 Reference value :  1.17577e-05
 Reference value :  1.17587e-05
 Reference value :  1.17604e-05
 Reference value :  1.17620e-05
 Reference value :  1.17648e-05
 Reference value :  1.17679e-05
 Reference value :  1.17729e-05
 Reference value :  1.17818e-05
 Reference value :  1.17996e-05
 Reference value :  1.18190e-05
 Reference value :  1.18365e-05
 Reference value :  1.18570e-05
 Reference value :  1.18719e-05
 Reference value :  1.18842e-05
 Reference value :  1.18960e-05
 Reference value :  1.19073e-05
 Reference value :  1.19206e-05
 Reference value :  1.19390e-05
 Reference value :  1.19596e-05
 Reference value :  1.19895e-05
 Reference value :  1.20000e-05
 Reference value :  1.20000e-05
 Reference value :  1.20000e-05
 Reference value :  1.20001e-05
 Reference value :  1.20001e-05
 Reference value :  1.20001e-05
 Reference value :  1.20001e-05
 Reference value :  1.20001e-05
 Reference value :  1.20002e-05
 Reference value :  1.20002e-05
 Reference value :  1.20004e-05
 Reference value :  1.20006e-05
 Reference value :  1.20009e-05
 Reference value :  1.20016e-05
 Reference value :  1.20022e-05
 Reference value :  1.20029e-05
 Reference value :  1.20036e-05
 Reference value :  1.20044e-05
 Reference value :  1.20052e-05
 Reference value :  1.20062e-05
 Reference value :  1.20071e-05
 Reference value :  1.20085e-05
 Reference value :  1.20098e-05
 Reference value :  1.20114e-05
 Reference value :  1.20129e-05
 Reference value :  1.20145e-05
 Reference value :  1.20160e-05
 Reference value :  1.20177e-05
 Reference value :  1.20194e-05
 Reference value :  1.20213e-05
 Reference value :  1.20252e-05
 Reference value :  1.20328e-05
 Reference value :  1.20457e-05
 Reference value :  1.20715e-05
 Reference value :  1.21231e-05
 Reference value :  1.22264e-05
 Reference value :  1.22501e-05
 Reference value :  1.22501e-05
 Reference value :  1.22501e-05
 Reference value :  1.22502e-05
 Reference value :  1.22502e-05
 Reference value :  1.22502e-05
 Reference value :  1.22502e-05
 Reference value :  1.22502e-05
 Reference value :  1.22502e-05
 Reference value :  1.22502e-05
 Reference value :  1.22502e-05
 Reference value :  1.22503e-05
 Reference value :  1.22504e-05
 Reference value :  1.22506e-05
 Reference value :  1.22509e-05
 Reference value :  1.22515e-05
 Reference value :  1.22522e-05
 Reference value :  1.22529e-05
 Reference value :  1.22538e-05
 Reference value :  1.22548e-05
 Reference value :  1.22557e-05
 Reference value :  1.22568e-05
 Reference value :  1.22577e-05
 Reference value :  1.22587e-05
 Reference value :  1.22599e-05
 Reference value :  1.22611e-05
 Reference value :  1.22637e-05
 Reference value :  1.22665e-05
 Reference value :  1.22710e-05
 Reference value :  1.22770e-05
 Reference value :  1.22890e-05
 Reference value :  1.23129e-05
 Reference value :  1.23609e-05
 Reference value :  1.24568e-05
 Reference value :  1.25000e-05
 Reference value :  1.25000e-05
 Reference value :  1.25000e-05
 Reference value :  1.25001e-05
 Reference value :  1.25001e-05
 Reference value :  1.25001e-05
 Reference value :  1.25001e-05
 Reference value :  1.25001e-05
 Reference value :  1.25002e-05
 Reference value :  1.25002e-05
 Reference value :  1.25004e-05
 Reference value :  1.25006e-05
 Reference value :  1.25009e-05
 Reference value :  1.25016e-05
 Reference value :  1.25022e-05
 Reference value :  1.25029e-05
 Reference value :  1.25036e-05
 Reference value :  1.25044e-05
 Reference value :  1.25052e-05
 Reference value :  1.25061e-05
 Reference value :  1.25072e-05
 Reference value :  1.25082e-05
 Reference value :  1.25091e-05
 Reference value :  1.25101e-05
 Reference value :  1.25112e-05
 Reference value :  1.25125e-05
 Reference value :  1.25144e-05
 Reference value :  1.25173e-05
 Reference value :  1.25202e-05
 Reference value :  1.25225e-05
 Reference value :  1.25245e-05
 Reference value :  1.25263e-05
 Reference value :  1.25283e-05
 Reference value :  1.25302e-05
 Reference value :  1.25323e-05
 Reference value :  1.25347e-05
 Reference value :  1.25381e-05
 Reference value :  1.25420e-05
 Reference value :  1.25494e-05
 Reference value :  1.25562e-05
 Reference value :  1.25613e-05
 Reference value :  1.25664e-05
 Reference value :  1.25710e-05
 Reference value :  1.25776e-05
 Reference value :  1.25850e-05
 Reference value :  1.25918e-05
 Reference value :  1.25995e-05
 Reference value :  1.26147e-05
 Reference value :  1.26305e-05
 Reference value :  1.26506e-05
 Reference value :  1.26725e-05
 Reference value :  1.27033e-05
 Reference value :  1.27403e-05
 Reference value :  1.27501e-05
 Reference value :  1.27501e-05
 Reference value :  1.27501e-05
 Reference value :  1.27502e-05
 Reference value :  1.27502e-05
 Reference value :  1.27502e-05
 Reference value :  1.27502e-05
 Reference value :  1.27502e-05
 Reference value :  1.27502e-05
 Reference value :  1.27502e-05
 Reference value :  1.27502e-05
 Reference value :  1.27503e-05
 Reference value :  1.27504e-05
 Reference value :  1.27506e-05
 Reference value :  1.27509e-05
 Reference value :  1.27515e-05
 Reference value :  1.27522e-05
 Reference value :  1.27529e-05
 Reference value :  1.27538e-05
 Reference value :  1.27548e-05
 Reference value :  1.27557e-05
 Reference value :  1.27567e-05
 Reference value :  1.27577e-05
 Reference value :  1.27587e-05
 Reference value :  1.27604e-05
 Reference value :  1.27620e-05
 Reference value :  1.27648e-05
 Reference value :  1.27678e-05
 Reference value :  1.27729e-05
 Reference value :  1.27813e-05
 Reference value :  1.27982e-05
 Reference value :  1.28321e-05
 Reference value :  1.28997e-05
 Reference value :  1.30000e-05
 Reference value :  1.30000e-05
 Reference value :  1.30000e-05
 Reference value :  1.30001e-05
 Reference value :  1.30001e-05
 Reference value :  1.30001e-05
 Reference value :  1.30001e-05
 Reference value :  1.30001e-05
 Reference value :  1.30002e-05
 Reference value :  1.30002e-05
 Reference value :  1.30004e-05
 Reference value :  1.30006e-05
 Reference value :  1.30009e-05
 Reference value :  1.30016e-05
 Reference value :  1.30022e-05
 Reference value :  1.30029e-05
 Reference value :  1.30036e-05
 Reference value :  1.30043e-05
 Reference value :  1.30052e-05
 Reference value :  1.30061e-05
 Reference value :  1.30070e-05
 Reference value :  1.30084e-05
 Reference value :  1.30096e-05
 Reference value :  1.30112e-05
 Reference value :  1.30125e-05
 Reference value :  1.30139e-05
 Reference value :  1.30153e-05
 Reference value :  1.30170e-05
 Reference value :  1.30190e-05
 Reference value :  1.30208e-05
 Reference value :  1.30244e-05
 Reference value :  1.30316e-05
 Reference value :  1.30440e-05
 Reference value :  1.30689e-05
 Reference value :  1.31185e-05
 Reference value :  1.32178e-05
 Reference value :  1.32501e-05
 Reference value :  1.32501e-05
 Reference value :  1.32501e-05
 Reference value :  1.32502e-05
 Reference value :  1.32502e-05
 Reference value :  1.32502e-05
 Reference value :  1.32502e-05
 Reference value :  1.32502e-05
 Reference value :  1.32502e-05
 Reference value :  1.32502e-05
 Reference value :  1.32502e-05
 Reference value :  1.32503e-05
 Reference value :  1.32504e-05
 Reference value :  1.32506e-05
 Reference value :  1.32509e-05
 Reference value :  1.32515e-05
 Reference value :  1.32522e-05
 Reference value :  1.32529e-05
 Reference value :  1.32537e-05
 Reference value :  1.32548e-05
 Reference value :  1.32557e-05
 Reference value :  1.32568e-05
 Reference value :  1.32577e-05
 Reference value :  1.32587e-05
 Reference value :  1.32599e-05
 Reference value :  1.32611e-05
 Reference value :  1.32624e-05
 Reference value :  1.32642e-05
 Reference value :  1.32664e-05
 Reference value :  1.32691e-05
 Reference value :  1.32728e-05
 Reference value :  1.32779e-05
 Reference value :  1.32881e-05
 Reference value :  1.33045e-05
 Reference value :  1.33372e-05
 Reference value :  1.34028e-05
 Reference value :  1.35000e-05
 Reference value :  1.35000e-05
 Reference value :  1.35000e-05
 Reference value :  1.35001e-05
 Reference value :  1.35001e-05
 Reference value :  1.35001e-05
 Reference value :  1.35001e-05
 Reference value :  1.35001e-05
 Reference value :  1.35002e-05
 Reference value :  1.35002e-05
 Reference value :  1.35004e-05
 Reference value :  1.35006e-05
 Reference value :  1.35009e-05
 Reference value :  1.35016e-05
 Reference value :  1.35022e-05
 Reference value :  1.35029e-05
 Reference value :  1.35036e-05
 Reference value :  1.35044e-05
 Reference value :  1.35052e-05
 Reference value :  1.35061e-05
 Reference value :  1.35070e-05
 Reference value :  1.35079e-05
 Reference value :  1.35088e-05
 Reference value :  1.35098e-05
 Reference value :  1.35108e-05
 Reference value :  1.35122e-05
 Reference value :  1.35139e-05
 Reference value :  1.35154e-05
 Reference value :  1.35171e-05
 Reference value :  1.35188e-05
 Reference value :  1.35205e-05
 Reference value :  1.35223e-05
 Reference value :  1.35237e-05
 Reference value :  1.35250e-05
 Reference value :  1.35267e-05
 Reference value :  1.35283e-05
 Reference value :  1.35299e-05
 Reference value :  1.35319e-05
 Reference value :  1.35339e-05
 Reference value :  1.35369e-05
 Reference value :  1.35407e-05
 Reference value :  1.35454e-05
 Reference value :  1.35505e-05
 Reference value :  1.35552e-05
 Reference value :  1.35585e-05
 Reference value :  1.35616e-05
 Reference value :  1.35648e-05
 Reference value :  1.35682e-05
 Reference value :  1.35733e-05
 Reference value :  1.35789e-05
 Reference value :  1.35871e-05
 Reference value :  1.35983e-05
 Reference value :  1.36127e-05
 Reference value :  1.36318e-05
 Reference value :  1.36608e-05
 Reference value :  1.37001e-05
 Reference value :  1.37483e-05
 Reference value :  1.37501e-05
 Reference value :  1.37501e-05
 Reference value :  1.37501e-05
 Reference value :  1.37502e-05
 Reference value :  1.37502e-05
 Reference value :  1.37502e-05
 Reference value :  1.37502e-05
 Reference value :  1.37502e-05
 Reference value :  1.37502e-05
 Reference value :  1.37502e-05
 Reference value :  1.37502e-05
 Reference value :  1.37503e-05
 Reference value :  1.37504e-05
 Reference value :  1.37506e-05
 Reference value :  1.37509e-05
 Reference value :  1.37515e-05
 Reference value :  1.37522e-05
 Reference value :  1.37529e-05
 Reference value :  1.37538e-05
 Reference value :  1.37548e-05
 Reference value :  1.37557e-05
 Reference value :  1.37567e-05
 Reference value :  1.37577e-05
 Reference value :  1.37587e-05
 Reference value :  1.37604e-05
 Reference value :  1.37620e-05
 Reference value :  1.37649e-05
 Reference value :  1.37680e-05
 Reference value :  1.37731e-05
 Reference value :  1.37824e-05
 Reference value :  1.37926e-05
 Reference value :  1.38053e-05
 Reference value :  1.38234e-05
 Reference value :  1.38597e-05
 Reference value :  1.39157e-05
 Reference value :  1.39867e-05
 Reference value :  1.40000e-05
 Reference value :  1.40000e-05
 Reference value :  1.40000e-05
 Reference value :  1.40001e-05
 Reference value :  1.40001e-05
 Reference value :  1.40001e-05
 Reference value :  1.40001e-05
 Reference value :  1.40001e-05
 Reference value :  1.40002e-05
 Reference value :  1.40002e-05
 Reference value :  1.40004e-05
 Reference value :  1.40006e-05
 Reference value :  1.40009e-05
 Reference value :  1.40016e-05
 Reference value :  1.40022e-05
 Reference value :  1.40029e-05
 Reference value :  1.40036e-05
 Reference value :  1.40043e-05
 Reference value :  1.40052e-05
 Reference value :  1.40061e-05
 Reference value :  1.40071e-05
 Reference value :  1.40085e-05
 Reference value :  1.40098e-05
 Reference value :  1.40114e-05
 Reference value :  1.40131e-05
 Reference value :  1.40146e-05
 Reference value :  1.40162e-05
 Reference value :  1.40178e-05
 Reference value :  1.40197e-05
 Reference value :  1.40217e-05
 Reference value :  1.40255e-05
 Reference value :  1.40309e-05
 Reference value :  1.40414e-05
 Reference value :  1.40609e-05
 Reference value :  1.40971e-05
 Reference value :  1.41687e-05
 Reference value :  1.42501e-05
 Reference value :  1.42501e-05
 Reference value :  1.42501e-05
 Reference value :  1.42502e-05
 Reference value :  1.42502e-05
 Reference value :  1.42502e-05
 Reference value :  1.42502e-05
 Reference value :  1.42502e-05
 Reference value :  1.42502e-05
 Reference value :  1.42502e-05
 Reference value :  1.42502e-05
 Reference value :  1.42503e-05
 Reference value :  1.42504e-05
 Reference value :  1.42506e-05
 Reference value :  1.42509e-05
 Reference value :  1.42515e-05
 Reference value :  1.42522e-05
 Reference value :  1.42529e-05
 Reference value :  1.42537e-05
 Reference value :  1.42548e-05
 Reference value :  1.42557e-05
 Reference value :  1.42568e-05
 Reference value :  1.42578e-05
 Reference value :  1.42588e-05
 Reference value :  1.42599e-05
 Reference value :  1.42612e-05
 Reference value :  1.42626e-05
 Reference value :  1.42643e-05
 Reference value :  1.42668e-05
 Reference value :  1.42695e-05
 Reference value :  1.42734e-05
 Reference value :  1.42788e-05
 Reference value :  1.42895e-05
 Reference value :  1.43109e-05
 Reference value :  1.43538e-05
 Reference value :  1.44395e-05
 Reference value :  1.45000e-05
 Reference value :  1.45000e-05
 Reference value :  1.45000e-05
 Reference value :  1.45001e-05
 Reference value :  1.45001e-05
 Reference value :  1.45001e-05
 Reference value :  1.45001e-05
 Reference value :  1.45001e-05
 Reference value :  1.45002e-05
 Reference value :  1.45002e-05
 Reference value :  1.45004e-05
 Reference value :  1.45006e-05
 Reference value :  1.45009e-05
 Reference value :  1.45016e-05
 Reference value :  1.45022e-05
 Reference value :  1.45029e-05
 Reference value :  1.45036e-05
 Reference value :  1.45044e-05
 Reference value :  1.45052e-05
 Reference value :  1.45061e-05
 Reference value :  1.45071e-05
 Reference value :  1.45079e-05
 Reference value :  1.45088e-05
 Reference value :  1.45098e-05
 Reference value :  1.45108e-05
 Reference value :  1.45121e-05
 Reference value :  1.45139e-05
 Reference value :  1.45157e-05
 Reference value :  1.45175e-05
 Reference value :  1.45195e-05
 Reference value :  1.45214e-05
 Reference value :  1.45233e-05
 Reference value :  1.45247e-05
 Reference value :  1.45260e-05
 Reference value :  1.45274e-05
 Reference value :  1.45288e-05
 Reference value :  1.45302e-05
 Reference value :  1.45318e-05
 Reference value :  1.45339e-05
 Reference value :  1.45365e-05
 Reference value :  1.45393e-05
 Reference value :  1.45415e-05
 Reference value :  1.45439e-05
 Reference value :  1.45464e-05
 Reference value :  1.45490e-05
 Reference value :  1.45542e-05
 Reference value :  1.45604e-05
 Reference value :  1.45669e-05
 Reference value :  1.45747e-05
 Reference value :  1.45859e-05
 Reference value :  1.46035e-05
 Reference value :  1.46381e-05
 Reference value :  1.46903e-05
 Reference value :  1.47501e-05
 Reference value :  1.47501e-05
 Reference value :  1.47501e-05
 Reference value :  1.47502e-05
 Reference value :  1.47502e-05
 Reference value :  1.47502e-05
 Reference value :  1.47502e-05
 Reference value :  1.47502e-05
 Reference value :  1.47502e-05
 Reference value :  1.47502e-05
 Reference value :  1.47502e-05
 Reference value :  1.47503e-05
 Reference value :  1.47504e-05
 Reference value :  1.47506e-05
 Reference value :  1.47509e-05
 Reference value :  1.47515e-05
 Reference value :  1.47522e-05
 Reference value :  1.47529e-05
 Reference value :  1.47538e-05
 Reference value :  1.47548e-05
 Reference value :  1.47558e-05
 Reference value :  1.47569e-05
 Reference value :  1.47580e-05
 Reference value :  1.47590e-05
 Reference value :  1.47608e-05
 Reference value :  1.47626e-05
 Reference value :  1.47654e-05
 Reference value :  1.47689e-05
 Reference value :  1.47742e-05
 Reference value :  1.47848e-05
 Reference value :  1.48030e-05
 Reference value :  1.48362e-05
 Reference value :  1.49027e-05
 Reference value :  1.50000e-05
 Reference value :  1.50000e-05
 Reference value :  1.50000e-05
 Reference value :  1.50001e-05
 Reference value :  1.50001e-05
 Reference value :  1.50001e-05
 Reference value :  1.50001e-05
 Reference value :  1.50001e-05
 Reference value :  1.50002e-05
 Reference value :  1.50002e-05
 Reference value :  1.50004e-05
 Reference value :  1.50006e-05
 Reference value :  1.50009e-05
 Reference value :  1.50016e-05
 Reference value :  1.50022e-05
 Reference value :  1.50029e-05
 Reference value :  1.50036e-05
 Reference value :  1.50044e-05
 Reference value :  1.50052e-05
 Reference value :  1.50061e-05
 Reference value :  1.50071e-05
 Reference value :  1.50085e-05
 Reference value :  1.50098e-05
 Reference value :  1.50114e-05
 Reference value :  1.50129e-05
 Reference value :  1.50144e-05
 Reference value :  1.50159e-05
 Reference value :  1.50175e-05
 Reference value :  1.50191e-05
 Reference value :  1.50210e-05
 Reference value :  1.50248e-05
 Reference value :  1.50305e-05
 Reference value :  1.50418e-05
 Reference value :  1.50645e-05
 Reference value :  1.51098e-05
 Reference value :  1.52006e-05
 Reference value :  1.52501e-05
 Reference value :  1.52501e-05
 Reference value :  1.52501e-05
 Reference value :  1.52502e-05
 Reference value :  1.52502e-05
 Reference value :  1.52502e-05
 Reference value :  1.52502e-05
 Reference value :  1.52502e-05
 Reference value :  1.52502e-05
 Reference value :  1.52502e-05
 Reference value :  1.52502e-05
 Reference value :  1.52503e-05
 Reference value :  1.52504e-05
 Reference value :  1.52506e-05
 Reference value :  1.52509e-05
 Reference value :  1.52515e-05
 Reference value :  1.52522e-05
 Reference value :  1.52529e-05
 Reference value :  1.52537e-05
 Reference value :  1.52548e-05
 Reference value :  1.52557e-05
 Reference value :  1.52568e-05
 Reference value :  1.52578e-05
 Reference value :  1.52588e-05
 Reference value :  1.52599e-05
 Reference value :  1.52612e-05
 Reference value :  1.52637e-05
 Reference value :  1.52665e-05
 Reference value :  1.52711e-05
 Reference value :  1.52772e-05
 Reference value :  1.52894e-05
 Reference value :  1.53139e-05
 Reference value :  1.53629e-05
 Reference value :  1.54609e-05
 Reference value :  1.55000e-05
 Reference value :  1.55006e-05
 Reference value :  1.55017e-05
 Reference value :  1.55023e-05
 Reference value :  1.55028e-05
 Reference value :  1.55035e-05
 Reference value :  1.55042e-05
 Reference value :  1.55051e-05
 Reference value :  1.55060e-05
 Reference value :  1.55069e-05
 Reference value :  1.55078e-05
 Reference value :  1.55088e-05
 Reference value :  1.55099e-05
 Reference value :  1.55109e-05
 Reference value :  1.55123e-05
 Reference value :  1.55141e-05
 Reference value :  1.55172e-05
 Reference value :  1.55203e-05
 Reference value :  1.55227e-05
 Reference value :  1.55249e-05
 Reference value :  1.55269e-05
 Reference value :  1.55289e-05
 Reference value :  1.55310e-05
 Reference value :  1.55334e-05
 Reference value :  1.55357e-05
 Reference value :  1.55393e-05
 Reference value :  1.55433e-05
 Reference value :  1.55469e-05
 Reference value :  1.55506e-05
 Reference value :  1.55554e-05
 Reference value :  1.55591e-05
 Reference value :  1.55630e-05
 Reference value :  1.55669e-05
 Reference value :  1.55712e-05
 Reference value :  1.55798e-05
 Reference value :  1.55888e-05
 Reference value :  1.55969e-05
 Reference value :  1.56072e-05
 Reference value :  1.56213e-05
 Reference value :  1.56462e-05
 Reference value :  1.56845e-05
 Reference value :  1.57501e-05
 Reference value :  1.57501e-05
 Reference value :  1.57501e-05
 Reference value :  1.57502e-05
 Reference value :  1.57502e-05
 Reference value :  1.57502e-05
 Reference value :  1.57502e-05
 Reference value :  1.57502e-05
[...]
 Reference value :  2.67769e-04
 Reference value :  2.67774e-04
 Reference value :  2.67785e-04
 Reference value :  2.67803e-04
 Reference value :  2.67836e-04
 Reference value :  2.67903e-04
 Reference value :  2.68000e-04
 Reference value :  2.68000e-04
 Reference value :  2.68000e-04
 Reference value :  2.68000e-04
 Reference value :  2.68000e-04
 Reference value :  2.68000e-04
 Reference value :  2.68000e-04
 Reference value :  2.68000e-04
 Reference value :  2.68000e-04
 Reference value :  2.68000e-04
 Reference value :  2.68000e-04
 Reference value :  2.68001e-04
 Reference value :  2.68001e-04
 Reference value :  2.68002e-04
 Reference value :  2.68002e-04
 Reference value :  2.68003e-04
 Reference value :  2.68004e-04
 Reference value :  2.68004e-04
 Reference value :  2.68005e-04
 Reference value :  2.68006e-04
 Reference value :  2.68007e-04
 Reference value :  2.68008e-04
 Reference value :  2.68010e-04
 Reference value :  2.68011e-04
 Reference value :  2.68013e-04
 Reference value :  2.68014e-04
 Reference value :  2.68016e-04
 Reference value :  2.68017e-04
 Reference value :  2.68019e-04
 Reference value :  2.68021e-04
 Reference value :  2.68025e-04
 Reference value :  2.68031e-04
 Reference value :  2.68042e-04
 Reference value :  2.68066e-04
 Reference value :  2.68114e-04
 Reference value :  2.68209e-04
 Reference value :  2.68250e-04
 Reference value :  2.68250e-04
 Reference value :  2.68250e-04
 Reference value :  2.68250e-04
 Reference value :  2.68250e-04
 Reference value :  2.68250e-04
 Reference value :  2.68250e-04
 Reference value :  2.68250e-04
 Reference value :  2.68250e-04
 Reference value :  2.68250e-04
 Reference value :  2.68250e-04
 Reference value :  2.68250e-04
 Reference value :  2.68250e-04
 Reference value :  2.68251e-04
 Reference value :  2.68251e-04
 Reference value :  2.68252e-04
 Reference value :  2.68252e-04
 Reference value :  2.68253e-04
 Reference value :  2.68254e-04
 Reference value :  2.68255e-04
 Reference value :  2.68256e-04
 Reference value :  2.68257e-04
 Reference value :  2.68258e-04
 Reference value :  2.68259e-04
 Reference value :  2.68260e-04
 Reference value :  2.68261e-04
 Reference value :  2.68264e-04
 Reference value :  2.68266e-04
 Reference value :  2.68271e-04
 Reference value :  2.68277e-04
 Reference value :  2.68289e-04
 Reference value :  2.68313e-04
 Reference value :  2.68360e-04
 Reference value :  2.68456e-04
 Reference value :  2.68500e-04
 Reference value :  2.68500e-04
 Reference value :  2.68500e-04
 Reference value :  2.68500e-04
 Reference value :  2.68500e-04
 Reference value :  2.68500e-04
 Reference value :  2.68500e-04
 Reference value :  2.68500e-04
 Reference value :  2.68500e-04
 Reference value :  2.68500e-04
 Reference value :  2.68500e-04
 Reference value :  2.68501e-04
 Reference value :  2.68501e-04
 Reference value :  2.68502e-04
 Reference value :  2.68502e-04
 Reference value :  2.68503e-04
 Reference value :  2.68504e-04
 Reference value :  2.68504e-04
 Reference value :  2.68505e-04
 Reference value :  2.68506e-04
 Reference value :  2.68507e-04
 Reference value :  2.68508e-04
 Reference value :  2.68509e-04
 Reference value :  2.68510e-04
 Reference value :  2.68511e-04
 Reference value :  2.68512e-04
 Reference value :  2.68514e-04
 Reference value :  2.68517e-04
 Reference value :  2.68520e-04
 Reference value :  2.68523e-04
 Reference value :  2.68525e-04
 Reference value :  2.68526e-04
 Reference value :  2.68528e-04
 Reference value :  2.68530e-04
 Reference value :  2.68533e-04
 Reference value :  2.68535e-04
 Reference value :  2.68538e-04
 Reference value :  2.68543e-04
 Reference value :  2.68550e-04
 Reference value :  2.68559e-04
 Reference value :  2.68564e-04
 Reference value :  2.68570e-04
 Reference value :  2.68577e-04
 Reference value :  2.68584e-04
 Reference value :  2.68591e-04
 Reference value :  2.68599e-04
 Reference value :  2.68609e-04
 Reference value :  2.68625e-04
 Reference value :  2.68645e-04
 Reference value :  2.68677e-04
 Reference value :  2.68727e-04
 Reference value :  2.68750e-04
 Reference value :  2.68750e-04
 Reference value :  2.68750e-04
 Reference value :  2.68750e-04
 Reference value :  2.68750e-04
 Reference value :  2.68750e-04
 Reference value :  2.68750e-04
 Reference value :  2.68750e-04
 Reference value :  2.68750e-04
 Reference value :  2.68750e-04
 Reference value :  2.68750e-04
 Reference value :  2.68750e-04
 Reference value :  2.68750e-04
 Reference value :  2.68751e-04
 Reference value :  2.68751e-04
 Reference value :  2.68752e-04
 Reference value :  2.68752e-04
 Reference value :  2.68753e-04
 Reference value :  2.68754e-04
 Reference value :  2.68755e-04
 Reference value :  2.68756e-04
 Reference value :  2.68757e-04
 Reference value :  2.68758e-04
 Reference value :  2.68759e-04
 Reference value :  2.68760e-04
 Reference value :  2.68762e-04
 Reference value :  2.68765e-04
 Reference value :  2.68768e-04
 Reference value :  2.68773e-04
 Reference value :  2.68782e-04
 Reference value :  2.68801e-04
 Reference value :  2.68838e-04
 Reference value :  2.68912e-04
 Reference value :  2.69000e-04
 Reference value :  2.69000e-04
 Reference value :  2.69000e-04
 Reference value :  2.69000e-04
 Reference value :  2.69000e-04
 Reference value :  2.69000e-04
 Reference value :  2.69000e-04
 Reference value :  2.69000e-04
 Reference value :  2.69000e-04
 Reference value :  2.69000e-04
 Reference value :  2.69000e-04
 Reference value :  2.69001e-04
 Reference value :  2.69001e-04
 Reference value :  2.69002e-04
 Reference value :  2.69002e-04
 Reference value :  2.69003e-04
 Reference value :  2.69004e-04
 Reference value :  2.69004e-04
 Reference value :  2.69005e-04
 Reference value :  2.69006e-04
 Reference value :  2.69007e-04
 Reference value :  2.69008e-04
 Reference value :  2.69010e-04
 Reference value :  2.69011e-04
 Reference value :  2.69013e-04
 Reference value :  2.69014e-04
 Reference value :  2.69016e-04
 Reference value :  2.69018e-04
 Reference value :  2.69019e-04
 Reference value :  2.69021e-04
 Reference value :  2.69025e-04
 Reference value :  2.69030e-04
 Reference value :  2.69041e-04
 Reference value :  2.69063e-04
 Reference value :  2.69105e-04
 Reference value :  2.69189e-04
 Reference value :  2.69250e-04
 Reference value :  2.69250e-04
 Reference value :  2.69250e-04
 Reference value :  2.69250e-04
 Reference value :  2.69250e-04
 Reference value :  2.69250e-04
 Reference value :  2.69250e-04
 Reference value :  2.69250e-04
 Reference value :  2.69250e-04
 Reference value :  2.69250e-04
 Reference value :  2.69250e-04
 Reference value :  2.69250e-04
 Reference value :  2.69250e-04
 Reference value :  2.69251e-04
 Reference value :  2.69251e-04
 Reference value :  2.69252e-04
 Reference value :  2.69252e-04
 Reference value :  2.69253e-04
 Reference value :  2.69254e-04
 Reference value :  2.69255e-04
 Reference value :  2.69256e-04
 Reference value :  2.69257e-04
 Reference value :  2.69258e-04
 Reference value :  2.69259e-04
 Reference value :  2.69260e-04
 Reference value :  2.69261e-04
 Reference value :  2.69262e-04
 Reference value :  2.69264e-04
 Reference value :  2.69267e-04
 Reference value :  2.69269e-04
 Reference value :  2.69273e-04
 Reference value :  2.69278e-04
 Reference value :  2.69289e-04
 Reference value :  2.69308e-04
 Reference value :  2.69346e-04
 Reference value :  2.69422e-04
 Reference value :  2.69500e-04
 Reference value :  2.69500e-04
 Reference value :  2.69500e-04
 Reference value :  2.69500e-04
 Reference value :  2.69500e-04
 Reference value :  2.69500e-04
 Reference value :  2.69500e-04
 Reference value :  2.69500e-04
 Reference value :  2.69500e-04
 Reference value :  2.69500e-04
 Reference value :  2.69500e-04
 Reference value :  2.69501e-04
 Reference value :  2.69501e-04
 Reference value :  2.69502e-04
 Reference value :  2.69502e-04
 Reference value :  2.69503e-04
 Reference value :  2.69504e-04
 Reference value :  2.69504e-04
 Reference value :  2.69505e-04
 Reference value :  2.69506e-04
 Reference value :  2.69507e-04
 Reference value :  2.69508e-04
 Reference value :  2.69509e-04
 Reference value :  2.69510e-04
 Reference value :  2.69511e-04
 Reference value :  2.69512e-04
 Reference value :  2.69514e-04
 Reference value :  2.69516e-04
 Reference value :  2.69518e-04
 Reference value :  2.69520e-04
 Reference value :  2.69521e-04
 Reference value :  2.69523e-04
 Reference value :  2.69525e-04
 Reference value :  2.69526e-04
 Reference value :  2.69527e-04
 Reference value :  2.69529e-04
 Reference value :  2.69530e-04
 Reference value :  2.69532e-04
 Reference value :  2.69534e-04
 Reference value :  2.69535e-04
 Reference value :  2.69537e-04
 Reference value :  2.69539e-04
 Reference value :  2.69541e-04
 Reference value :  2.69543e-04
 Reference value :  2.69548e-04
 Reference value :  2.69554e-04
 Reference value :  2.69560e-04
 Reference value :  2.69567e-04
 Reference value :  2.69573e-04
 Reference value :  2.69585e-04
 Reference value :  2.69599e-04
 Reference value :  2.69629e-04
 Reference value :  2.69682e-04
 Reference value :  2.69750e-04
 Reference value :  2.69750e-04
 Reference value :  2.69750e-04
 Reference value :  2.69750e-04
 Reference value :  2.69750e-04
 Reference value :  2.69750e-04
 Reference value :  2.69750e-04
 Reference value :  2.69750e-04
 Reference value :  2.69750e-04
 Reference value :  2.69750e-04
 Reference value :  2.69750e-04
 Reference value :  2.69750e-04
 Reference value :  2.69750e-04
 Reference value :  2.69751e-04
 Reference value :  2.69751e-04
 Reference value :  2.69752e-04
 Reference value :  2.69752e-04
 Reference value :  2.69753e-04
 Reference value :  2.69754e-04
 Reference value :  2.69755e-04
 Reference value :  2.69756e-04
 Reference value :  2.69757e-04
 Reference value :  2.69758e-04
 Reference value :  2.69759e-04
 Reference value :  2.69761e-04
 Reference value :  2.69763e-04
 Reference value :  2.69765e-04
 Reference value :  2.69769e-04
 Reference value :  2.69774e-04
 Reference value :  2.69785e-04
 Reference value :  2.69803e-04
 Reference value :  2.69836e-04
 Reference value :  2.69903e-04
 Reference value :  2.70000e-04
 Reference value :  2.70000e-04
 Reference value :  2.70000e-04
 Reference value :  2.70000e-04
 Reference value :  2.70000e-04
 Reference value :  2.70000e-04
 Reference value :  2.70000e-04
 Reference value :  2.70000e-04
 Reference value :  2.70000e-04
 Reference value :  2.70000e-04
 Reference value :  2.70000e-04
 Reference value :  2.70001e-04
 Reference value :  2.70001e-04
 Reference value :  2.70002e-04
 Reference value :  2.70002e-04
 Reference value :  2.70003e-04
 Reference value :  2.70004e-04
 Reference value :  2.70004e-04
 Reference value :  2.70005e-04
 Reference value :  2.70006e-04
 Reference value :  2.70007e-04
 Reference value :  2.70008e-04
 Reference value :  2.70010e-04
 Reference value :  2.70011e-04
 Reference value :  2.70013e-04
 Reference value :  2.70014e-04
 Reference value :  2.70016e-04
 Reference value :  2.70017e-04
 Reference value :  2.70019e-04
 Reference value :  2.70021e-04
 Reference value :  2.70025e-04
 Reference value :  2.70030e-04
 Reference value :  2.70042e-04
 Reference value :  2.70064e-04
 Reference value :  2.70110e-04
 Reference value :  2.70201e-04
 Reference value :  2.70250e-04
 Reference value :  2.70250e-04
 Reference value :  2.70250e-04
 Reference value :  2.70250e-04
 Reference value :  2.70250e-04
 Reference value :  2.70250e-04
 Reference value :  2.70250e-04
 Reference value :  2.70250e-04
 Reference value :  2.70250e-04
 Reference value :  2.70250e-04
 Reference value :  2.70250e-04
 Reference value :  2.70250e-04
 Reference value :  2.70250e-04
 Reference value :  2.70251e-04
 Reference value :  2.70251e-04
 Reference value :  2.70252e-04
 Reference value :  2.70252e-04
 Reference value :  2.70253e-04
 Reference value :  2.70254e-04
 Reference value :  2.70255e-04
 Reference value :  2.70256e-04
 Reference value :  2.70257e-04
 Reference value :  2.70258e-04
 Reference value :  2.70259e-04
 Reference value :  2.70260e-04
 Reference value :  2.70261e-04
 Reference value :  2.70264e-04
 Reference value :  2.70267e-04
 Reference value :  2.70271e-04
 Reference value :  2.70277e-04
 Reference value :  2.70289e-04
 Reference value :  2.70314e-04
 Reference value :  2.70363e-04
 Reference value :  2.70461e-04
 Reference value :  2.70500e-04
 Reference value :  2.70500e-04
 Reference value :  2.70500e-04
 Reference value :  2.70500e-04
 Reference value :  2.70500e-04
 Reference value :  2.70500e-04
 Reference value :  2.70500e-04
 Reference value :  2.70500e-04
 Reference value :  2.70500e-04
 Reference value :  2.70500e-04
 Reference value :  2.70500e-04
 Reference value :  2.70501e-04
 Reference value :  2.70501e-04
 Reference value :  2.70502e-04
 Reference value :  2.70502e-04
 Reference value :  2.70503e-04
 Reference value :  2.70504e-04
 Reference value :  2.70504e-04
 Reference value :  2.70505e-04
 Reference value :  2.70506e-04
 Reference value :  2.70507e-04
 Reference value :  2.70508e-04
 Reference value :  2.70509e-04
 Reference value :  2.70510e-04
 Reference value :  2.70511e-04
 Reference value :  2.70512e-04
 Reference value :  2.70514e-04
 Reference value :  2.70517e-04
 Reference value :  2.70520e-04
 Reference value :  2.70523e-04
 Reference value :  2.70525e-04
 Reference value :  2.70527e-04
 Reference value :  2.70529e-04
 Reference value :  2.70531e-04
 Reference value :  2.70534e-04
 Reference value :  2.70536e-04
 Reference value :  2.70539e-04
 Reference value :  2.70543e-04
 Reference value :  2.70547e-04
 Reference value :  2.70551e-04
 Reference value :  2.70556e-04
 Reference value :  2.70559e-04
 Reference value :  2.70563e-04
 Reference value :  2.70567e-04
 Reference value :  2.70571e-04
 Reference value :  2.70579e-04
 Reference value :  2.70589e-04
 Reference value :  2.70603e-04
 Reference value :  2.70621e-04
 Reference value :  2.70639e-04
 Reference value :  2.70668e-04
 Reference value :  2.70726e-04
 Reference value :  2.70750e-04
 Reference value :  2.70750e-04
 Reference value :  2.70750e-04
 Reference value :  2.70750e-04
 Reference value :  2.70750e-04
 Reference value :  2.70750e-04
 Reference value :  2.70750e-04
 Reference value :  2.70750e-04
 Reference value :  2.70750e-04
 Reference value :  2.70750e-04
 Reference value :  2.70750e-04
 Reference value :  2.70750e-04
 Reference value :  2.70750e-04
 Reference value :  2.70751e-04
 Reference value :  2.70751e-04
 Reference value :  2.70752e-04
 Reference value :  2.70752e-04
 Reference value :  2.70753e-04
 Reference value :  2.70754e-04
 Reference value :  2.70755e-04
 Reference value :  2.70756e-04
 Reference value :  2.70757e-04
 Reference value :  2.70758e-04
 Reference value :  2.70759e-04
 Reference value :  2.70760e-04
 Reference value :  2.70762e-04
 Reference value :  2.70765e-04
 Reference value :  2.70768e-04
 Reference value :  2.70773e-04
 Reference value :  2.70781e-04
 Reference value :  2.70798e-04
 Reference value :  2.70831e-04
 Reference value :  2.70897e-04
 Reference value :  2.71000e-04
 Reference value :  2.71000e-04
 Reference value :  2.71000e-04
 Reference value :  2.71000e-04
 Reference value :  2.71000e-04
 Reference value :  2.71000e-04
 Reference value :  2.71000e-04
 Reference value :  2.71000e-04
 Reference value :  2.71000e-04
 Reference value :  2.71000e-04
 Reference value :  2.71000e-04
 Reference value :  2.71001e-04
 Reference value :  2.71001e-04
 Reference value :  2.71002e-04
 Reference value :  2.71002e-04
 Reference value :  2.71003e-04
 Reference value :  2.71004e-04
 Reference value :  2.71004e-04
 Reference value :  2.71005e-04
 Reference value :  2.71006e-04
 Reference value :  2.71007e-04
 Reference value :  2.71008e-04
 Reference value :  2.71010e-04
 Reference value :  2.71011e-04
 Reference value :  2.71013e-04
 Reference value :  2.71014e-04
 Reference value :  2.71016e-04
 Reference value :  2.71017e-04
 Reference value :  2.71019e-04
 Reference value :  2.71021e-04
 Reference value :  2.71025e-04
 Reference value :  2.71032e-04
 Reference value :  2.71045e-04
 Reference value :  2.71071e-04
 Reference value :  2.71122e-04
 Reference value :  2.71225e-04
 Reference value :  2.71250e-04
 Reference value :  2.71250e-04
 Reference value :  2.71250e-04
 Reference value :  2.71250e-04
 Reference value :  2.71250e-04
 Reference value :  2.71250e-04
 Reference value :  2.71250e-04
 Reference value :  2.71250e-04
 Reference value :  2.71250e-04
 Reference value :  2.71250e-04
 Reference value :  2.71250e-04
 Reference value :  2.71250e-04
 Reference value :  2.71250e-04
 Reference value :  2.71251e-04
 Reference value :  2.71251e-04
 Reference value :  2.71252e-04
 Reference value :  2.71252e-04
 Reference value :  2.71253e-04
 Reference value :  2.71254e-04
 Reference value :  2.71255e-04
 Reference value :  2.71256e-04
 Reference value :  2.71257e-04
 Reference value :  2.71258e-04
 Reference value :  2.71259e-04
 Reference value :  2.71260e-04
 Reference value :  2.71261e-04
 Reference value :  2.71262e-04
 Reference value :  2.71264e-04
 Reference value :  2.71266e-04
 Reference value :  2.71269e-04
 Reference value :  2.71272e-04
 Reference value :  2.71277e-04
 Reference value :  2.71287e-04
 Reference value :  2.71303e-04
 Reference value :  2.71333e-04
 Reference value :  2.71379e-04
 Reference value :  2.71413e-04
 Reference value :  2.71430e-04
 Reference value :  2.71447e-04
 Reference value :  2.71465e-04
 Reference value :  2.71485e-04
 Reference value :  2.71500e-04
 Reference value :  2.71500e-04
 Reference value :  2.71500e-04
 Reference value :  2.71500e-04
 Reference value :  2.71500e-04
 Reference value :  2.71500e-04
 Reference value :  2.71500e-04
 Reference value :  2.71500e-04
 Reference value :  2.71500e-04
 Reference value :  2.71500e-04
 Reference value :  2.71500e-04
 Reference value :  2.71501e-04
 Reference value :  2.71501e-04
 Reference value :  2.71502e-04
 Reference value :  2.71502e-04
 Reference value :  2.71503e-04
 Reference value :  2.71504e-04
 Reference value :  2.71504e-04
 Reference value :  2.71505e-04
 Reference value :  2.71506e-04
 Reference value :  2.71507e-04
 Reference value :  2.71508e-04
 Reference value :  2.71509e-04
 Reference value :  2.71510e-04
 Reference value :  2.71511e-04
 Reference value :  2.71512e-04
 Reference value :  2.71514e-04
 Reference value :  2.71517e-04
 Reference value :  2.71520e-04
 Reference value :  2.71523e-04
 Reference value :  2.71526e-04
 Reference value :  2.71529e-04
 Reference value :  2.71532e-04
 Reference value :  2.71537e-04
 Reference value :  2.71543e-04
 Reference value :  2.71553e-04
 Reference value :  2.71569e-04
 Reference value :  2.71594e-04
 Reference value :  2.71645e-04
 Reference value :  2.71736e-04
 Reference value :  2.71750e-04
 Reference value :  2.71750e-04
 Reference value :  2.71750e-04
 Reference value :  2.71750e-04
 Reference value :  2.71750e-04
 Reference value :  2.71750e-04
 Reference value :  2.71750e-04
 Reference value :  2.71750e-04
 Reference value :  2.71750e-04
 Reference value :  2.71750e-04
 Reference value :  2.71750e-04
 Reference value :  2.71750e-04
 Reference value :  2.71750e-04
 Reference value :  2.71751e-04
 Reference value :  2.71751e-04
 Reference value :  2.71752e-04
 Reference value :  2.71752e-04
 Reference value :  2.71753e-04
 Reference value :  2.71754e-04
 Reference value :  2.71755e-04
 Reference value :  2.71756e-04
 Reference value :  2.71758e-04
 Reference value :  2.71759e-04
 Reference value :  2.71761e-04
 Reference value :  2.71763e-04
 Reference value :  2.71766e-04
 Reference value :  2.71770e-04
 Reference value :  2.71776e-04
 Reference value :  2.71788e-04
 Reference value :  2.71811e-04
 Reference value :  2.71857e-04
 Reference value :  2.71949e-04
 Reference value :  2.72000e-04
No. of Data Rows : 41442
ngspice-44 done
