
Note: Compatibility modes selected: hs a


Circuit: ** sch_path: /home/ece/cace/sar-adc-using-sky130-pdk/runs/run_2025-09-14_01-51-19/parameters/dnl/run_0/sar_output_dnl.sch

option SCALE: Scale is set to 1e-06 for instance and model parameters
option SCALE: Scale is set to 1e-06 for instance and model parameters
option SCALE: Scale is set to 1e-06 for instance and model parameters
option SCALE: Scale is set to 1e-06 for instance and model parameters
Doing analysis at TEMP = -40.000000 and TNOM = 27.000000

Using KLU as Direct Linear Solver
Operating point simulation skipped by 'uic',
  now using transient initial conditions.
 Reference value :  1.00000e-12
 Reference value :  1.02772e-12
 Reference value :  1.08316e-12
 Reference value :  1.19404e-12
 Reference value :  1.33848e-12
 Reference value :  1.62736e-12
 Reference value :  2.20511e-12
 Reference value :  3.05251e-12
 Reference value :  3.95857e-12
 Reference value :  5.17553e-12
 Reference value :  6.90485e-12
 Reference value :  1.00810e-11
 Reference value :  1.36083e-11
 Reference value :  2.05148e-11
 Reference value :  2.72352e-11
 Reference value :  3.63322e-11
 Reference value :  4.75059e-11
 Reference value :  6.34292e-11
 Reference value :  8.32760e-11
 Reference value :  1.00000e-10
 Reference value :  1.01387e-10
 Reference value :  1.04162e-10
 Reference value :  1.09712e-10
 Reference value :  1.20811e-10
 Reference value :  1.43010e-10
 Reference value :  1.87406e-10
 Reference value :  2.76200e-10
 Reference value :  4.27731e-10
 Reference value :  6.03935e-10
 Reference value :  8.82055e-10
 Reference value :  1.26641e-09
 Reference value :  1.65676e-09
 Reference value :  2.24856e-09
 Reference value :  2.86826e-09
 Reference value :  3.76359e-09
 Reference value :  4.60366e-09
 Reference value :  5.32465e-09
 Reference value :  6.21495e-09
 Reference value :  7.23468e-09
 Reference value :  8.30685e-09
 Reference value :  9.52878e-09
 Reference value :  1.10135e-08
 Reference value :  1.25534e-08
 Reference value :  1.52072e-08
 Reference value :  2.04422e-08
 Reference value :  2.54728e-08
 Reference value :  3.04019e-08
 Reference value :  3.40973e-08
 Reference value :  3.78444e-08
 Reference value :  4.18677e-08
 Reference value :  4.49623e-08
 Reference value :  4.83750e-08
 Reference value :  5.39736e-08
 Reference value :  6.11253e-08
 Reference value :  7.54287e-08
 Reference value :  1.00818e-07
 Reference value :  1.49855e-07
 Reference value :  2.26837e-07
 Reference value :  2.50100e-07
 Reference value :  2.50110e-07
 Reference value :  2.50130e-07
 Reference value :  2.50170e-07
 Reference value :  2.50200e-07
 Reference value :  2.50201e-07
 Reference value :  2.50202e-07
 Reference value :  2.50204e-07
 Reference value :  2.50209e-07
 Reference value :  2.50218e-07
 Reference value :  2.50236e-07
 Reference value :  2.50272e-07
 Reference value :  2.50345e-07
 Reference value :  2.50447e-07
 Reference value :  2.50593e-07
 Reference value :  2.50778e-07
 Reference value :  2.51120e-07
 Reference value :  2.51483e-07
 Reference value :  2.51986e-07
 Reference value :  2.52508e-07
 Reference value :  2.53160e-07
 Reference value :  2.53977e-07
 Reference value :  2.54663e-07
 Reference value :  2.55434e-07
 Reference value :  2.56134e-07
 Reference value :  2.56943e-07
 Reference value :  2.57722e-07
 Reference value :  2.58998e-07
 Reference value :  2.60913e-07
 Reference value :  2.62713e-07
 Reference value :  2.66018e-07
 Reference value :  2.70085e-07
 Reference value :  2.78217e-07
 Reference value :  2.94483e-07
 Reference value :  3.26135e-07
 Reference value :  3.89440e-07
 Reference value :  5.00000e-07
 Reference value :  5.00010e-07
 Reference value :  5.00030e-07
 Reference value :  5.00070e-07
 Reference value :  5.00100e-07
 Reference value :  5.00104e-07
 Reference value :  5.00113e-07
 Reference value :  5.00130e-07
 Reference value :  5.00165e-07
 Reference value :  5.00235e-07
 Reference value :  5.00364e-07
 Reference value :  5.00578e-07
 Reference value :  5.01005e-07
 Reference value :  5.01505e-07
 Reference value :  5.02036e-07
 Reference value :  5.02521e-07
 Reference value :  5.03090e-07
 Reference value :  5.03710e-07
 Reference value :  5.04475e-07
 Reference value :  5.05266e-07
 Reference value :  5.06059e-07
 Reference value :  5.07285e-07
 Reference value :  5.08435e-07
 Reference value :  5.10198e-07
 Reference value :  5.12308e-07
 Reference value :  5.13855e-07
 Reference value :  5.15569e-07
 Reference value :  5.17393e-07
 Reference value :  5.19567e-07
 Reference value :  5.21776e-07
 Reference value :  5.24131e-07
 Reference value :  5.28480e-07
 Reference value :  5.34578e-07
 Reference value :  5.42840e-07
 Reference value :  5.59365e-07
 Reference value :  5.83256e-07
 Reference value :  6.25670e-07
 Reference value :  7.10499e-07
 Reference value :  7.50100e-07
 Reference value :  7.50110e-07
 Reference value :  7.50130e-07
 Reference value :  7.50170e-07
 Reference value :  7.50200e-07
 Reference value :  7.50201e-07
 Reference value :  7.50202e-07
 Reference value :  7.50206e-07
 Reference value :  7.50212e-07
 Reference value :  7.50225e-07
 Reference value :  7.50251e-07
 Reference value :  7.50303e-07
 Reference value :  7.50407e-07
 Reference value :  7.50615e-07
 Reference value :  7.50972e-07
 Reference value :  7.51347e-07
 Reference value :  7.51825e-07
 Reference value :  7.52356e-07
 Reference value :  7.53081e-07
 Reference value :  7.53919e-07
 Reference value :  7.54680e-07
 Reference value :  7.55563e-07
 Reference value :  7.56329e-07
 Reference value :  7.57134e-07
 Reference value :  7.58019e-07
 Reference value :  7.59018e-07
 Reference value :  7.60059e-07
 Reference value :  7.61394e-07
 Reference value :  7.63079e-07
 Reference value :  7.65168e-07
 Reference value :  7.67931e-07
 Reference value :  7.71837e-07
 Reference value :  7.79649e-07
 Reference value :  7.91728e-07
 Reference value :  8.14523e-07
 Reference value :  8.60112e-07
 Reference value :  9.51290e-07
 Reference value :  1.00000e-06
 Reference value :  1.00001e-06
 Reference value :  1.00003e-06
 Reference value :  1.00007e-06
 Reference value :  1.00010e-06
 Reference value :  1.00010e-06
 Reference value :  1.00011e-06
 Reference value :  1.00013e-06
 Reference value :  1.00017e-06
 Reference value :  1.00023e-06
 Reference value :  1.00036e-06
 Reference value :  1.00058e-06
 Reference value :  1.00100e-06
 Reference value :  1.00150e-06
 Reference value :  1.00203e-06
 Reference value :  1.00254e-06
 Reference value :  1.00314e-06
 Reference value :  1.00371e-06
 Reference value :  1.00450e-06
 Reference value :  1.00523e-06
 Reference value :  1.00594e-06
 Reference value :  1.00680e-06
 Reference value :  1.00769e-06
 Reference value :  1.00851e-06
 Reference value :  1.00939e-06
 Reference value :  1.01049e-06
 Reference value :  1.01198e-06
 Reference value :  1.01394e-06
 Reference value :  1.01528e-06
 Reference value :  1.01678e-06
 Reference value :  1.01821e-06
 Reference value :  1.01962e-06
 Reference value :  1.02066e-06
 Reference value :  1.02178e-06
 Reference value :  1.02314e-06
 Reference value :  1.02463e-06
 Reference value :  1.02612e-06
 Reference value :  1.02847e-06
 Reference value :  1.03093e-06
 Reference value :  1.03586e-06
 Reference value :  1.04338e-06
 Reference value :  1.05558e-06
 Reference value :  1.07768e-06
 Reference value :  1.11851e-06
 Reference value :  1.18349e-06
 Reference value :  1.25010e-06
 Reference value :  1.25011e-06
 Reference value :  1.25013e-06
 Reference value :  1.25017e-06
 Reference value :  1.25020e-06
 Reference value :  1.25020e-06
 Reference value :  1.25020e-06
 Reference value :  1.25021e-06
 Reference value :  1.25021e-06
 Reference value :  1.25023e-06
 Reference value :  1.25025e-06
 Reference value :  1.25031e-06
 Reference value :  1.25041e-06
 Reference value :  1.25062e-06
 Reference value :  1.25098e-06
 Reference value :  1.25135e-06
 Reference value :  1.25182e-06
 Reference value :  1.25236e-06
 Reference value :  1.25304e-06
 Reference value :  1.25389e-06
 Reference value :  1.25466e-06
 Reference value :  1.25551e-06
 Reference value :  1.25641e-06
 Reference value :  1.25724e-06
 Reference value :  1.25874e-06
 Reference value :  1.26008e-06
 Reference value :  1.26221e-06
 Reference value :  1.26502e-06
 Reference value :  1.26960e-06
 Reference value :  1.27875e-06
 Reference value :  1.29291e-06
 Reference value :  1.32023e-06
 Reference value :  1.36747e-06
 Reference value :  1.43074e-06
 Reference value :  1.50000e-06
 Reference value :  1.50001e-06
 Reference value :  1.50003e-06
 Reference value :  1.50007e-06
 Reference value :  1.50010e-06
 Reference value :  1.50010e-06
 Reference value :  1.50011e-06
 Reference value :  1.50013e-06
 Reference value :  1.50016e-06
 Reference value :  1.50023e-06
 Reference value :  1.50036e-06
 Reference value :  1.50056e-06
 Reference value :  1.50096e-06
 Reference value :  1.50146e-06
 Reference value :  1.50198e-06
 Reference value :  1.50245e-06
 Reference value :  1.50303e-06
 Reference value :  1.50356e-06
 Reference value :  1.50423e-06
 Reference value :  1.50495e-06
 Reference value :  1.50577e-06
 Reference value :  1.50682e-06
 Reference value :  1.50790e-06
 Reference value :  1.50936e-06
 Reference value :  1.51039e-06
 Reference value :  1.51155e-06
 Reference value :  1.51276e-06
 Reference value :  1.51424e-06
 Reference value :  1.51573e-06
 Reference value :  1.51740e-06
 Reference value :  1.52069e-06
 Reference value :  1.52520e-06
 Reference value :  1.53416e-06
 Reference value :  1.55087e-06
 Reference value :  1.58081e-06
 Reference value :  1.64068e-06
 Reference value :  1.75010e-06
 Reference value :  1.75011e-06
 Reference value :  1.75013e-06
 Reference value :  1.75017e-06
 Reference value :  1.75020e-06
 Reference value :  1.75020e-06
 Reference value :  1.75020e-06
 Reference value :  1.75021e-06
 Reference value :  1.75021e-06
 Reference value :  1.75023e-06
 Reference value :  1.75025e-06
 Reference value :  1.75030e-06
 Reference value :  1.75041e-06
 Reference value :  1.75062e-06
 Reference value :  1.75097e-06
 Reference value :  1.75134e-06
 Reference value :  1.75181e-06
 Reference value :  1.75234e-06
 Reference value :  1.75304e-06
 Reference value :  1.75386e-06
 Reference value :  1.75464e-06
 Reference value :  1.75553e-06
 Reference value :  1.75638e-06
 Reference value :  1.75717e-06
 Reference value :  1.75808e-06
 Reference value :  1.75910e-06
 Reference value :  1.76036e-06
 Reference value :  1.76156e-06
 Reference value :  1.76343e-06
 Reference value :  1.76550e-06
 Reference value :  1.76868e-06
 Reference value :  1.77335e-06
 Reference value :  1.78270e-06
 Reference value :  1.80139e-06
 Reference value :  1.83730e-06
 Reference value :  1.90910e-06
 Reference value :  2.00000e-06
 Reference value :  2.00001e-06
 Reference value :  2.00003e-06
 Reference value :  2.00007e-06
 Reference value :  2.00010e-06
 Reference value :  2.00010e-06
 Reference value :  2.00011e-06
 Reference value :  2.00013e-06
 Reference value :  2.00016e-06
 Reference value :  2.00023e-06
 Reference value :  2.00036e-06
 Reference value :  2.00056e-06
 Reference value :  2.00096e-06
 Reference value :  2.00145e-06
 Reference value :  2.00198e-06
 Reference value :  2.00248e-06
 Reference value :  2.00302e-06
 Reference value :  2.00358e-06
 Reference value :  2.00432e-06
 Reference value :  2.00499e-06
 Reference value :  2.00563e-06
 Reference value :  2.00631e-06
 Reference value :  2.00699e-06
 Reference value :  2.00773e-06
 Reference value :  2.00846e-06
 Reference value :  2.00931e-06
 Reference value :  2.01033e-06
 Reference value :  2.01182e-06
 Reference value :  2.01401e-06
 Reference value :  2.01544e-06
 Reference value :  2.01704e-06
 Reference value :  2.01854e-06
 Reference value :  2.01970e-06
 Reference value :  2.02080e-06
 Reference value :  2.02197e-06
 Reference value :  2.02320e-06
 Reference value :  2.02465e-06
 Reference value :  2.02602e-06
 Reference value :  2.02842e-06
 Reference value :  2.03061e-06
 Reference value :  2.03499e-06
 Reference value :  2.04268e-06
 Reference value :  2.05444e-06
 Reference value :  2.07492e-06
 Reference value :  2.10478e-06
 Reference value :  2.15252e-06
 Reference value :  2.23823e-06
 Reference value :  2.25010e-06
 Reference value :  2.25011e-06
 Reference value :  2.25013e-06
 Reference value :  2.25017e-06
 Reference value :  2.25020e-06
 Reference value :  2.25020e-06
 Reference value :  2.25020e-06
 Reference value :  2.25021e-06
 Reference value :  2.25021e-06
 Reference value :  2.25023e-06
 Reference value :  2.25025e-06
 Reference value :  2.25031e-06
 Reference value :  2.25041e-06
 Reference value :  2.25062e-06
 Reference value :  2.25098e-06
 Reference value :  2.25135e-06
 Reference value :  2.25182e-06
 Reference value :  2.25236e-06
 Reference value :  2.25305e-06
 Reference value :  2.25388e-06
 Reference value :  2.25464e-06
 Reference value :  2.25549e-06
 Reference value :  2.25637e-06
 Reference value :  2.25720e-06
 Reference value :  2.25850e-06
 Reference value :  2.25984e-06
 Reference value :  2.26188e-06
 Reference value :  2.26465e-06
 Reference value :  2.26868e-06
 Reference value :  2.27675e-06
 Reference value :  2.29034e-06
 Reference value :  2.31492e-06
 Reference value :  2.36014e-06
 Reference value :  2.42215e-06
 Reference value :  2.48498e-06
 Reference value :  2.50000e-06
 Reference value :  2.50001e-06
 Reference value :  2.50003e-06
 Reference value :  2.50007e-06
 Reference value :  2.50010e-06
 Reference value :  2.50010e-06
 Reference value :  2.50011e-06
 Reference value :  2.50013e-06
 Reference value :  2.50017e-06
 Reference value :  2.50023e-06
 Reference value :  2.50036e-06
 Reference value :  2.50056e-06
 Reference value :  2.50096e-06
 Reference value :  2.50146e-06
 Reference value :  2.50199e-06
 Reference value :  2.50246e-06
 Reference value :  2.50303e-06
 Reference value :  2.50357e-06
 Reference value :  2.50424e-06
 Reference value :  2.50496e-06
 Reference value :  2.50577e-06
 Reference value :  2.50683e-06
 Reference value :  2.50791e-06
 Reference value :  2.50935e-06
 Reference value :  2.51038e-06
 Reference value :  2.51152e-06
 Reference value :  2.51269e-06
 Reference value :  2.51409e-06
 Reference value :  2.51561e-06
 Reference value :  2.51716e-06
 Reference value :  2.52026e-06
 Reference value :  2.52541e-06
 Reference value :  2.53488e-06
 Reference value :  2.55329e-06
 Reference value :  2.58701e-06
 Reference value :  2.65443e-06
 Reference value :  2.75010e-06
 Reference value :  2.75011e-06
 Reference value :  2.75013e-06
 Reference value :  2.75017e-06
 Reference value :  2.75020e-06
 Reference value :  2.75020e-06
 Reference value :  2.75020e-06
 Reference value :  2.75021e-06
 Reference value :  2.75021e-06
 Reference value :  2.75023e-06
 Reference value :  2.75025e-06
 Reference value :  2.75030e-06
 Reference value :  2.75041e-06
 Reference value :  2.75062e-06
 Reference value :  2.75097e-06
 Reference value :  2.75134e-06
 Reference value :  2.75181e-06
 Reference value :  2.75234e-06
 Reference value :  2.75304e-06
 Reference value :  2.75386e-06
 Reference value :  2.75464e-06
 Reference value :  2.75552e-06
 Reference value :  2.75637e-06
 Reference value :  2.75716e-06
 Reference value :  2.75808e-06
 Reference value :  2.75910e-06
 Reference value :  2.76036e-06
 Reference value :  2.76157e-06
 Reference value :  2.76344e-06
 Reference value :  2.76551e-06
 Reference value :  2.76868e-06
 Reference value :  2.77338e-06
 Reference value :  2.78277e-06
 Reference value :  2.80156e-06
 Reference value :  2.83767e-06
 Reference value :  2.90988e-06
 Reference value :  3.00000e-06
 Reference value :  3.00001e-06
 Reference value :  3.00003e-06
 Reference value :  3.00007e-06
 Reference value :  3.00010e-06
 Reference value :  3.00010e-06
 Reference value :  3.00011e-06
 Reference value :  3.00013e-06
 Reference value :  3.00016e-06
 Reference value :  3.00023e-06
 Reference value :  3.00036e-06
 Reference value :  3.00056e-06
 Reference value :  3.00096e-06
 Reference value :  3.00145e-06
 Reference value :  3.00198e-06
 Reference value :  3.00248e-06
 Reference value :  3.00302e-06
 Reference value :  3.00358e-06
 Reference value :  3.00432e-06
 Reference value :  3.00499e-06
 Reference value :  3.00564e-06
 Reference value :  3.00631e-06
 Reference value :  3.00700e-06
 Reference value :  3.00774e-06
 Reference value :  3.00844e-06
 Reference value :  3.00933e-06
 Reference value :  3.01032e-06
 Reference value :  3.01187e-06
 Reference value :  3.01337e-06
 Reference value :  3.01496e-06
 Reference value :  3.01646e-06
 Reference value :  3.01792e-06
 Reference value :  3.01901e-06
 Reference value :  3.02004e-06
 Reference value :  3.02121e-06
 Reference value :  3.02227e-06
 Reference value :  3.02337e-06
 Reference value :  3.02465e-06
 Reference value :  3.02636e-06
 Reference value :  3.02823e-06
 Reference value :  3.03140e-06
 Reference value :  3.03670e-06
 Reference value :  3.04484e-06
 Reference value :  3.05949e-06
 Reference value :  3.08340e-06
 Reference value :  3.12031e-06
 Reference value :  3.15142e-06
 Reference value :  3.18824e-06
 Reference value :  3.21796e-06
 Reference value :  3.24944e-06
 Reference value :  3.25010e-06
 Reference value :  3.25011e-06
 Reference value :  3.25013e-06
 Reference value :  3.25017e-06
 Reference value :  3.25020e-06
 Reference value :  3.25020e-06
 Reference value :  3.25020e-06
 Reference value :  3.25021e-06
 Reference value :  3.25021e-06
 Reference value :  3.25023e-06
 Reference value :  3.25025e-06
 Reference value :  3.25030e-06
 Reference value :  3.25041e-06
 Reference value :  3.25062e-06
 Reference value :  3.25097e-06
 Reference value :  3.25134e-06
 Reference value :  3.25181e-06
 Reference value :  3.25234e-06
 Reference value :  3.25304e-06
 Reference value :  3.25386e-06
 Reference value :  3.25464e-06
 Reference value :  3.25550e-06
 Reference value :  3.25636e-06
 Reference value :  3.25721e-06
 Reference value :  3.25867e-06
 Reference value :  3.26000e-06
 Reference value :  3.26213e-06
 Reference value :  3.26490e-06
 Reference value :  3.26931e-06
 Reference value :  3.27814e-06
 Reference value :  3.29206e-06
 Reference value :  3.31856e-06
 Reference value :  3.36503e-06
 Reference value :  3.44758e-06
 Reference value :  3.50000e-06
 Reference value :  3.50001e-06
 Reference value :  3.50003e-06
 Reference value :  3.50007e-06
 Reference value :  3.50010e-06
 Reference value :  3.50010e-06
 Reference value :  3.50011e-06
 Reference value :  3.50013e-06
 Reference value :  3.50016e-06
 Reference value :  3.50023e-06
 Reference value :  3.50036e-06
 Reference value :  3.50056e-06
 Reference value :  3.50096e-06
 Reference value :  3.50145e-06
 Reference value :  3.50198e-06
 Reference value :  3.50245e-06
 Reference value :  3.50303e-06
 Reference value :  3.50356e-06
 Reference value :  3.50423e-06
 Reference value :  3.50495e-06
 Reference value :  3.50570e-06
 Reference value :  3.50678e-06
 Reference value :  3.50778e-06
 Reference value :  3.50927e-06
 Reference value :  3.51027e-06
 Reference value :  3.51142e-06
 Reference value :  3.51246e-06
 Reference value :  3.51370e-06
 Reference value :  3.51497e-06
 Reference value :  3.51639e-06
 Reference value :  3.51921e-06
 Reference value :  3.52471e-06
 Reference value :  3.53410e-06
 Reference value :  3.55289e-06
 Reference value :  3.59046e-06
 Reference value :  3.66561e-06
 Reference value :  3.75010e-06
 Reference value :  3.75011e-06
 Reference value :  3.75013e-06
 Reference value :  3.75017e-06
 Reference value :  3.75020e-06
 Reference value :  3.75020e-06
 Reference value :  3.75020e-06
 Reference value :  3.75021e-06
 Reference value :  3.75021e-06
 Reference value :  3.75023e-06
 Reference value :  3.75025e-06
 Reference value :  3.75030e-06
 Reference value :  3.75041e-06
 Reference value :  3.75062e-06
 Reference value :  3.75097e-06
 Reference value :  3.75134e-06
 Reference value :  3.75181e-06
 Reference value :  3.75234e-06
 Reference value :  3.75304e-06
 Reference value :  3.75386e-06
 Reference value :  3.75464e-06
 Reference value :  3.75552e-06
 Reference value :  3.75637e-06
 Reference value :  3.75716e-06
 Reference value :  3.75808e-06
 Reference value :  3.75909e-06
 Reference value :  3.76035e-06
 Reference value :  3.76155e-06
 Reference value :  3.76342e-06
 Reference value :  3.76549e-06
 Reference value :  3.76866e-06
 Reference value :  3.77333e-06
 Reference value :  3.78266e-06
 Reference value :  3.80133e-06
 Reference value :  3.83715e-06
 Reference value :  3.90880e-06
 Reference value :  4.00000e-06
 Reference value :  4.00001e-06
 Reference value :  4.00003e-06
 Reference value :  4.00007e-06
 Reference value :  4.00010e-06
 Reference value :  4.00010e-06
 Reference value :  4.00011e-06
 Reference value :  4.00013e-06
 Reference value :  4.00016e-06
 Reference value :  4.00023e-06
 Reference value :  4.00036e-06
 Reference value :  4.00056e-06
 Reference value :  4.00096e-06
 Reference value :  4.00145e-06
 Reference value :  4.00198e-06
 Reference value :  4.00248e-06
 Reference value :  4.00302e-06
 Reference value :  4.00358e-06
 Reference value :  4.00432e-06
 Reference value :  4.00499e-06
 Reference value :  4.00563e-06
 Reference value :  4.00631e-06
 Reference value :  4.00700e-06
 Reference value :  4.00774e-06
 Reference value :  4.00842e-06
 Reference value :  4.00937e-06
 Reference value :  4.01033e-06
 Reference value :  4.01196e-06
 Reference value :  4.01299e-06
 Reference value :  4.01422e-06
 Reference value :  4.01539e-06
 Reference value :  4.01681e-06
 Reference value :  4.01832e-06
 Reference value :  4.01948e-06
 Reference value :  4.02071e-06
 Reference value :  4.02194e-06
 Reference value :  4.02325e-06
 Reference value :  4.02474e-06
 Reference value :  4.02630e-06
 Reference value :  4.02856e-06
 Reference value :  4.03145e-06
 Reference value :  4.03722e-06
 Reference value :  4.04801e-06
 Reference value :  4.06277e-06
 Reference value :  4.07697e-06
 Reference value :  4.09194e-06
 Reference value :  4.10783e-06
 Reference value :  4.12405e-06
 Reference value :  4.14020e-06
 Reference value :  4.15876e-06
 Reference value :  4.18228e-06
 Reference value :  4.20730e-06
 Reference value :  4.25010e-06
 Reference value :  4.25011e-06
 Reference value :  4.25013e-06
 Reference value :  4.25017e-06
 Reference value :  4.25020e-06
 Reference value :  4.25020e-06
 Reference value :  4.25020e-06
 Reference value :  4.25021e-06
 Reference value :  4.25021e-06
 Reference value :  4.25023e-06
 Reference value :  4.25025e-06
 Reference value :  4.25030e-06
 Reference value :  4.25041e-06
 Reference value :  4.25062e-06
 Reference value :  4.25097e-06
 Reference value :  4.25134e-06
 Reference value :  4.25181e-06
 Reference value :  4.25234e-06
 Reference value :  4.25304e-06
 Reference value :  4.25386e-06
 Reference value :  4.25463e-06
 Reference value :  4.25550e-06
 Reference value :  4.25635e-06
 Reference value :  4.25720e-06
 Reference value :  4.25866e-06
 Reference value :  4.25997e-06
 Reference value :  4.26213e-06
 Reference value :  4.26490e-06
 Reference value :  4.26920e-06
 Reference value :  4.27780e-06
 Reference value :  4.29163e-06
 Reference value :  4.31757e-06
 Reference value :  4.36369e-06
 Reference value :  4.45451e-06
 Reference value :  4.50000e-06
 Reference value :  4.50001e-06
 Reference value :  4.50003e-06
 Reference value :  4.50007e-06
 Reference value :  4.50010e-06
 Reference value :  4.50010e-06
 Reference value :  4.50011e-06
 Reference value :  4.50013e-06
 Reference value :  4.50016e-06
 Reference value :  4.50023e-06
 Reference value :  4.50036e-06
 Reference value :  4.50056e-06
 Reference value :  4.50096e-06
 Reference value :  4.50145e-06
 Reference value :  4.50198e-06
 Reference value :  4.50245e-06
 Reference value :  4.50302e-06
 Reference value :  4.50356e-06
 Reference value :  4.50423e-06
 Reference value :  4.50494e-06
 Reference value :  4.50570e-06
 Reference value :  4.50678e-06
 Reference value :  4.50778e-06
 Reference value :  4.50916e-06
 Reference value :  4.51014e-06
 Reference value :  4.51124e-06
 Reference value :  4.51220e-06
 Reference value :  4.51336e-06
 Reference value :  4.51451e-06
 Reference value :  4.51587e-06
 Reference value :  4.51858e-06
 Reference value :  4.52396e-06
 Reference value :  4.53349e-06
 Reference value :  4.55257e-06
 Reference value :  4.59071e-06
 Reference value :  4.66699e-06
 Reference value :  4.75010e-06
 Reference value :  4.75011e-06
 Reference value :  4.75013e-06
 Reference value :  4.75017e-06
 Reference value :  4.75020e-06
 Reference value :  4.75020e-06
 Reference value :  4.75020e-06
 Reference value :  4.75021e-06
 Reference value :  4.75021e-06
 Reference value :  4.75023e-06
 Reference value :  4.75025e-06
 Reference value :  4.75030e-06
 Reference value :  4.75041e-06
 Reference value :  4.75062e-06
 Reference value :  4.75097e-06
 Reference value :  4.75134e-06
 Reference value :  4.75181e-06
 Reference value :  4.75234e-06
 Reference value :  4.75304e-06
 Reference value :  4.75386e-06
 Reference value :  4.75463e-06
 Reference value :  4.75551e-06
 Reference value :  4.75636e-06
 Reference value :  4.75715e-06
 Reference value :  4.75806e-06
 Reference value :  4.75908e-06
 Reference value :  4.76032e-06
 Reference value :  4.76153e-06
 Reference value :  4.76339e-06
 Reference value :  4.76546e-06
 Reference value :  4.76861e-06
 Reference value :  4.77323e-06
 Reference value :  4.78247e-06
 Reference value :  4.80094e-06
 Reference value :  4.83626e-06
 Reference value :  4.90690e-06
 Reference value :  5.00000e-06
 Reference value :  5.00001e-06
 Reference value :  5.00003e-06
 Reference value :  5.00007e-06
 Reference value :  5.00010e-06
 Reference value :  5.00010e-06
 Reference value :  5.00011e-06
 Reference value :  5.00013e-06
 Reference value :  5.00016e-06
 Reference value :  5.00023e-06
 Reference value :  5.00036e-06
 Reference value :  5.00056e-06
 Reference value :  5.00096e-06
 Reference value :  5.00145e-06
 Reference value :  5.00198e-06
 Reference value :  5.00247e-06
 Reference value :  5.00302e-06
 Reference value :  5.00358e-06
 Reference value :  5.00432e-06
 Reference value :  5.00499e-06
 Reference value :  5.00564e-06
 Reference value :  5.00632e-06
 Reference value :  5.00701e-06
 Reference value :  5.00768e-06
 Reference value :  5.00838e-06
 Reference value :  5.00931e-06
 Reference value :  5.01026e-06
 Reference value :  5.01192e-06
 Reference value :  5.01301e-06
 Reference value :  5.01423e-06
 Reference value :  5.01549e-06
 Reference value :  5.01690e-06
 Reference value :  5.01846e-06
 Reference value :  5.01965e-06
 Reference value :  5.02092e-06
 Reference value :  5.02207e-06
 Reference value :  5.02337e-06
 Reference value :  5.02492e-06
 Reference value :  5.02645e-06
 Reference value :  5.02878e-06
 Reference value :  5.03190e-06
 Reference value :  5.03813e-06
 Reference value :  5.04927e-06
 Reference value :  5.05810e-06
 Reference value :  5.06565e-06
 Reference value :  5.07452e-06
 Reference value :  5.08405e-06
 Reference value :  5.09926e-06
 Reference value :  5.12063e-06
 Reference value :  5.16336e-06
 Reference value :  5.24625e-06
 Reference value :  5.25010e-06
 Reference value :  5.25011e-06
 Reference value :  5.25013e-06
 Reference value :  5.25017e-06
 Reference value :  5.25020e-06
 Reference value :  5.25020e-06
 Reference value :  5.25020e-06
 Reference value :  5.25021e-06
 Reference value :  5.25021e-06
 Reference value :  5.25023e-06
 Reference value :  5.25025e-06
 Reference value :  5.25031e-06
 Reference value :  5.25041e-06
 Reference value :  5.25062e-06
 Reference value :  5.25098e-06
 Reference value :  5.25135e-06
 Reference value :  5.25182e-06
 Reference value :  5.25236e-06
 Reference value :  5.25307e-06
 Reference value :  5.25389e-06
 Reference value :  5.25464e-06
 Reference value :  5.25548e-06
 Reference value :  5.25637e-06
 Reference value :  5.25719e-06
 Reference value :  5.25848e-06
 Reference value :  5.25980e-06
 Reference value :  5.26183e-06
 Reference value :  5.26459e-06
 Reference value :  5.26857e-06
 Reference value :  5.27654e-06
 Reference value :  5.28982e-06
 Reference value :  5.31376e-06
 Reference value :  5.35753e-06
 Reference value :  5.44400e-06
 Reference value :  5.50000e-06
 Reference value :  5.50001e-06
 Reference value :  5.50003e-06
 Reference value :  5.50007e-06
 Reference value :  5.50010e-06
 Reference value :  5.50010e-06
 Reference value :  5.50011e-06
 Reference value :  5.50013e-06
 Reference value :  5.50016e-06
 Reference value :  5.50023e-06
 Reference value :  5.50036e-06
 Reference value :  5.50056e-06
 Reference value :  5.50096e-06
 Reference value :  5.50146e-06
 Reference value :  5.50198e-06
 Reference value :  5.50245e-06
 Reference value :  5.50303e-06
 Reference value :  5.50356e-06
 Reference value :  5.50423e-06
 Reference value :  5.50495e-06
 Reference value :  5.50577e-06
 Reference value :  5.50683e-06
 Reference value :  5.50792e-06
 Reference value :  5.50924e-06
 Reference value :  5.51026e-06
 Reference value :  5.51137e-06
 Reference value :  5.51236e-06
 Reference value :  5.51352e-06
 Reference value :  5.51473e-06
 Reference value :  5.51613e-06
 Reference value :  5.51892e-06
 Reference value :  5.52331e-06
 Reference value :  5.53208e-06
 Reference value :  5.54961e-06
 Reference value :  5.58338e-06
 Reference value :  5.65091e-06
 Reference value :  5.75010e-06
 Reference value :  5.75011e-06
 Reference value :  5.75013e-06
 Reference value :  5.75017e-06
 Reference value :  5.75020e-06
 Reference value :  5.75020e-06
 Reference value :  5.75020e-06
 Reference value :  5.75021e-06
 Reference value :  5.75021e-06
 Reference value :  5.75023e-06
 Reference value :  5.75025e-06
 Reference value :  5.75030e-06
 Reference value :  5.75041e-06
 Reference value :  5.75062e-06
 Reference value :  5.75097e-06
 Reference value :  5.75134e-06
 Reference value :  5.75181e-06
 Reference value :  5.75234e-06
 Reference value :  5.75304e-06
 Reference value :  5.75386e-06
 Reference value :  5.75464e-06
 Reference value :  5.75552e-06
 Reference value :  5.75637e-06
 Reference value :  5.75716e-06
 Reference value :  5.75808e-06
 Reference value :  5.75910e-06
 Reference value :  5.76036e-06
 Reference value :  5.76156e-06
 Reference value :  5.76343e-06
 Reference value :  5.76550e-06
 Reference value :  5.76866e-06
 Reference value :  5.77335e-06
 Reference value :  5.78272e-06
 Reference value :  5.80147e-06
 Reference value :  5.83749e-06
 Reference value :  5.90953e-06
 Reference value :  6.00000e-06
 Reference value :  6.00001e-06
 Reference value :  6.00003e-06
 Reference value :  6.00007e-06
 Reference value :  6.00010e-06
 Reference value :  6.00010e-06
 Reference value :  6.00011e-06
 Reference value :  6.00013e-06
 Reference value :  6.00016e-06
 Reference value :  6.00023e-06
 Reference value :  6.00036e-06
 Reference value :  6.00056e-06
 Reference value :  6.00096e-06
 Reference value :  6.00145e-06
 Reference value :  6.00198e-06
 Reference value :  6.00248e-06
 Reference value :  6.00302e-06
 Reference value :  6.00358e-06
 Reference value :  6.00432e-06
 Reference value :  6.00499e-06
 Reference value :  6.00564e-06
 Reference value :  6.00632e-06
 Reference value :  6.00701e-06
 Reference value :  6.00776e-06
 Reference value :  6.00846e-06
 Reference value :  6.00946e-06
 Reference value :  6.01050e-06
 Reference value :  6.01197e-06
 Reference value :  6.01302e-06
 Reference value :  6.01419e-06
 Reference value :  6.01550e-06
 Reference value :  6.01696e-06
 Reference value :  6.01835e-06
 Reference value :  6.01936e-06
 Reference value :  6.02033e-06
 Reference value :  6.02137e-06
 Reference value :  6.02237e-06
 Reference value :  6.02342e-06
 Reference value :  6.02461e-06
 Reference value :  6.02616e-06
 Reference value :  6.02806e-06
 Reference value :  6.03097e-06
 Reference value :  6.03580e-06
 Reference value :  6.04002e-06
 Reference value :  6.04470e-06
 Reference value :  6.04967e-06
 Reference value :  6.05741e-06
 Reference value :  6.06768e-06
 Reference value :  6.08715e-06
 Reference value :  6.10852e-06
 Reference value :  6.13533e-06
 Reference value :  6.16540e-06
 Reference value :  6.18739e-06
 Reference value :  6.21124e-06
 Reference value :  6.23436e-06
 Reference value :  6.25010e-06
 Reference value :  6.25011e-06
 Reference value :  6.25013e-06
 Reference value :  6.25017e-06
 Reference value :  6.25020e-06
 Reference value :  6.25020e-06
 Reference value :  6.25020e-06
 Reference value :  6.25021e-06
 Reference value :  6.25021e-06
 Reference value :  6.25023e-06
 Reference value :  6.25025e-06
 Reference value :  6.25031e-06
 Reference value :  6.25041e-06
 Reference value :  6.25062e-06
 Reference value :  6.25098e-06
 Reference value :  6.25135e-06
 Reference value :  6.25182e-06
 Reference value :  6.25236e-06
 Reference value :  6.25305e-06
 Reference value :  6.25389e-06
 Reference value :  6.25467e-06
 Reference value :  6.25555e-06
 Reference value :  6.25642e-06
 Reference value :  6.25728e-06
 Reference value :  6.25874e-06
 Reference value :  6.26008e-06
 Reference value :  6.26222e-06
 Reference value :  6.26503e-06
 Reference value :  6.26965e-06
 Reference value :  6.27889e-06
 Reference value :  6.29275e-06
 Reference value :  6.31970e-06
 Reference value :  6.36528e-06
 Reference value :  6.44575e-06
 Reference value :  6.50000e-06
 Reference value :  6.50001e-06
 Reference value :  6.50003e-06
 Reference value :  6.50007e-06
 Reference value :  6.50010e-06
 Reference value :  6.50010e-06
 Reference value :  6.50011e-06
 Reference value :  6.50013e-06
 Reference value :  6.50016e-06
 Reference value :  6.50023e-06
 Reference value :  6.50036e-06
 Reference value :  6.50056e-06
 Reference value :  6.50096e-06
 Reference value :  6.50145e-06
 Reference value :  6.50198e-06
 Reference value :  6.50248e-06
 Reference value :  6.50302e-06
 Reference value :  6.50358e-06
 Reference value :  6.50434e-06
 Reference value :  6.50503e-06
 Reference value :  6.50585e-06
 Reference value :  6.50690e-06
 Reference value :  6.50799e-06
 Reference value :  6.50938e-06
 Reference value :  6.51045e-06
 Reference value :  6.51160e-06
 Reference value :  6.51271e-06
 Reference value :  6.51394e-06
 Reference value :  6.51534e-06
 Reference value :  6.51692e-06
 Reference value :  6.51985e-06
 Reference value :  6.52406e-06
 Reference value :  6.53204e-06
 Reference value :  6.54664e-06
 Reference value :  6.57303e-06
 Reference value :  6.62452e-06
 Reference value :  6.71869e-06
 Reference value :  6.75010e-06
 Reference value :  6.75011e-06
 Reference value :  6.75013e-06
 Reference value :  6.75017e-06
 Reference value :  6.75020e-06
 Reference value :  6.75020e-06
 Reference value :  6.75020e-06
 Reference value :  6.75021e-06
 Reference value :  6.75021e-06
 Reference value :  6.75023e-06
 Reference value :  6.75025e-06
 Reference value :  6.75031e-06
 Reference value :  6.75041e-06
 Reference value :  6.75062e-06
 Reference value :  6.75098e-06
 Reference value :  6.75135e-06
 Reference value :  6.75182e-06
 Reference value :  6.75236e-06
 Reference value :  6.75305e-06
 Reference value :  6.75389e-06
 Reference value :  6.75464e-06
 Reference value :  6.75551e-06
 Reference value :  6.75627e-06
 Reference value :  6.75707e-06
 Reference value :  6.75796e-06
 Reference value :  6.75896e-06
 Reference value :  6.76082e-06
 Reference value :  6.76331e-06
 Reference value :  6.76655e-06
 Reference value :  6.77265e-06
 Reference value :  6.78485e-06
 Reference value :  6.80593e-06
 Reference value :  6.84804e-06
 Reference value :  6.93225e-06
 Reference value :  7.00000e-06
 Reference value :  7.00001e-06
 Reference value :  7.00003e-06
 Reference value :  7.00007e-06
 Reference value :  7.00010e-06
 Reference value :  7.00010e-06
 Reference value :  7.00011e-06
 Reference value :  7.00013e-06
 Reference value :  7.00016e-06
 Reference value :  7.00023e-06
 Reference value :  7.00036e-06
 Reference value :  7.00056e-06
 Reference value :  7.00096e-06
 Reference value :  7.00145e-06
 Reference value :  7.00198e-06
 Reference value :  7.00248e-06
 Reference value :  7.00302e-06
 Reference value :  7.00358e-06
 Reference value :  7.00427e-06
 Reference value :  7.00498e-06
 Reference value :  7.00580e-06
 Reference value :  7.00655e-06
 Reference value :  7.00732e-06
 Reference value :  7.00807e-06
 Reference value :  7.00888e-06
 Reference value :  7.00993e-06
 Reference value :  7.01133e-06
 Reference value :  7.01354e-06
 Reference value :  7.01592e-06
 Reference value :  7.01770e-06
 Reference value :  7.01966e-06
 Reference value :  7.02117e-06
 Reference value :  7.02275e-06
 Reference value :  7.02445e-06
 Reference value :  7.02636e-06
 Reference value :  7.02820e-06
 Reference value :  7.03079e-06
 Reference value :  7.03455e-06
 Reference value :  7.04078e-06
 Reference value :  7.04748e-06
 Reference value :  7.05935e-06
 Reference value :  7.07267e-06
 Reference value :  7.09932e-06
 Reference value :  7.15261e-06
 Reference value :  7.24244e-06
 Reference value :  7.25010e-06
 Reference value :  7.25011e-06
 Reference value :  7.25013e-06
 Reference value :  7.25017e-06
 Reference value :  7.25020e-06
 Reference value :  7.25020e-06
 Reference value :  7.25020e-06
 Reference value :  7.25021e-06
 Reference value :  7.25021e-06
 Reference value :  7.25023e-06
 Reference value :  7.25025e-06
 Reference value :  7.25031e-06
 Reference value :  7.25041e-06
 Reference value :  7.25062e-06
 Reference value :  7.25098e-06
 Reference value :  7.25135e-06
 Reference value :  7.25183e-06
 Reference value :  7.25236e-06
 Reference value :  7.25306e-06
 Reference value :  7.25389e-06
 Reference value :  7.25463e-06
 Reference value :  7.25548e-06
 Reference value :  7.25638e-06
 Reference value :  7.25719e-06
 Reference value :  7.25847e-06
 Reference value :  7.25978e-06
 Reference value :  7.26181e-06
 Reference value :  7.26456e-06
 Reference value :  7.26853e-06
 Reference value :  7.27648e-06
 Reference value :  7.28971e-06
 Reference value :  7.31357e-06
 Reference value :  7.35716e-06
 Reference value :  7.44434e-06
 Reference value :  7.50000e-06
 Reference value :  7.50001e-06
 Reference value :  7.50003e-06
 Reference value :  7.50007e-06
 Reference value :  7.50010e-06
 Reference value :  7.50010e-06
 Reference value :  7.50011e-06
 Reference value :  7.50013e-06
 Reference value :  7.50016e-06
 Reference value :  7.50023e-06
 Reference value :  7.50036e-06
 Reference value :  7.50056e-06
 Reference value :  7.50096e-06
 Reference value :  7.50145e-06
 Reference value :  7.50197e-06
 Reference value :  7.50246e-06
 Reference value :  7.50300e-06
 Reference value :  7.50355e-06
 Reference value :  7.50430e-06
 Reference value :  7.50500e-06
 Reference value :  7.50588e-06
 Reference value :  7.50691e-06
 Reference value :  7.50804e-06
 Reference value :  7.50942e-06
 Reference value :  7.51048e-06
 Reference value :  7.51163e-06
 Reference value :  7.51263e-06
 Reference value :  7.51381e-06
 Reference value :  7.51501e-06
 Reference value :  7.51641e-06
 Reference value :  7.51921e-06
 Reference value :  7.52382e-06
 Reference value :  7.53303e-06
 Reference value :  7.55122e-06
 Reference value :  7.58608e-06
 Reference value :  7.65579e-06
 Reference value :  7.75010e-06
 Reference value :  7.75011e-06
 Reference value :  7.75013e-06
 Reference value :  7.75017e-06
 Reference value :  7.75020e-06
 Reference value :  7.75020e-06
 Reference value :  7.75020e-06
 Reference value :  7.75021e-06
 Reference value :  7.75021e-06
 Reference value :  7.75023e-06
 Reference value :  7.75025e-06
 Reference value :  7.75030e-06
 Reference value :  7.75041e-06
 Reference value :  7.75062e-06
 Reference value :  7.75097e-06
 Reference value :  7.75134e-06
 Reference value :  7.75181e-06
 Reference value :  7.75234e-06
 Reference value :  7.75304e-06
 Reference value :  7.75386e-06
 Reference value :  7.75459e-06
 Reference value :  7.75545e-06
 Reference value :  7.75619e-06
 Reference value :  7.75698e-06
 Reference value :  7.75786e-06
 Reference value :  7.75886e-06
 Reference value :  7.76071e-06
 Reference value :  7.76317e-06
 Reference value :  7.76640e-06
 Reference value :  7.77223e-06
 Reference value :  7.78389e-06
 Reference value :  7.80460e-06
 Reference value :  7.84503e-06
 Reference value :  7.92589e-06
 Reference value :  8.00000e-06
 Reference value :  8.00001e-06
 Reference value :  8.00003e-06
 Reference value :  8.00007e-06
 Reference value :  8.00010e-06
 Reference value :  8.00010e-06
 Reference value :  8.00011e-06
 Reference value :  8.00013e-06
 Reference value :  8.00016e-06
 Reference value :  8.00023e-06
 Reference value :  8.00036e-06
 Reference value :  8.00056e-06
 Reference value :  8.00096e-06
 Reference value :  8.00145e-06
 Reference value :  8.00197e-06
 Reference value :  8.00246e-06
 Reference value :  8.00300e-06
 Reference value :  8.00356e-06
 Reference value :  8.00432e-06
 Reference value :  8.00501e-06
 Reference value :  8.00580e-06
 Reference value :  8.00661e-06
 Reference value :  8.00744e-06
 Reference value :  8.00824e-06
 Reference value :  8.00907e-06
 Reference value :  8.01015e-06
 Reference value :  8.01157e-06
 Reference value :  8.01405e-06
 Reference value :  8.01653e-06
 Reference value :  8.01845e-06
 Reference value :  8.02059e-06
 Reference value :  8.02323e-06
 Reference value :  8.02602e-06
 Reference value :  8.03042e-06
 Reference value :  8.03615e-06
 Reference value :  8.04500e-06
 Reference value :  8.05875e-06
 Reference value :  8.08226e-06
 Reference value :  8.12108e-06
 Reference value :  8.19862e-06
 Reference value :  8.25010e-06
 Reference value :  8.25011e-06
 Reference value :  8.25013e-06
 Reference value :  8.25017e-06
 Reference value :  8.25020e-06
 Reference value :  8.25020e-06
 Reference value :  8.25020e-06
 Reference value :  8.25021e-06
 Reference value :  8.25021e-06
 Reference value :  8.25023e-06
 Reference value :  8.25025e-06
 Reference value :  8.25030e-06
 Reference value :  8.25041e-06
 Reference value :  8.25062e-06
 Reference value :  8.25097e-06
 Reference value :  8.25134e-06
 Reference value :  8.25181e-06
 Reference value :  8.25234e-06
 Reference value :  8.25304e-06
 Reference value :  8.25386e-06
 Reference value :  8.25494e-06
 Reference value :  8.25597e-06
 Reference value :  8.25728e-06
 Reference value :  8.25853e-06
 Reference value :  8.26071e-06
 Reference value :  8.26276e-06
 Reference value :  8.26618e-06
 Reference value :  8.27072e-06
 Reference value :  8.27979e-06
 Reference value :  8.29793e-06
 Reference value :  8.33421e-06
 Reference value :  8.40677e-06
 Reference value :  8.50000e-06
 Reference value :  8.50000e-06
 Reference value :  8.50000e-06
 Reference value :  8.50000e-06
 Reference value :  8.50000e-06
 Reference value :  8.50000e-06
 Reference value :  8.50000e-06
 Reference value :  8.50000e-06
 Reference value :  8.50000e-06
 Reference value :  8.50000e-06
 Reference value :  8.50001e-06
 Reference value :  8.50001e-06
 Reference value :  8.50002e-06
 Reference value :  8.50004e-06
 Reference value :  8.50008e-06
 Reference value :  8.50010e-06
 Reference value :  8.50010e-06
 Reference value :  8.50011e-06
 Reference value :  8.50012e-06
 Reference value :  8.50014e-06
 Reference value :  8.50018e-06
 Reference value :  8.50027e-06
 Reference value :  8.50044e-06
 Reference value :  8.50079e-06
 Reference value :  8.50129e-06
 Reference value :  8.50198e-06
 Reference value :  8.50269e-06
 Reference value :  8.50333e-06
 Reference value :  8.50398e-06
 Reference value :  8.50464e-06
 Reference value :  8.50535e-06
 Reference value :  8.50632e-06
 Reference value :  8.50732e-06
 Reference value :  8.50883e-06
 Reference value :  8.51049e-06
 Reference value :  8.51174e-06
 Reference value :  8.51314e-06
 Reference value :  8.51500e-06
 Reference value :  8.51728e-06
 Reference value :  8.51956e-06
 Reference value :  8.52412e-06
 Reference value :  8.52908e-06
 Reference value :  8.53253e-06
 Reference value :  8.53542e-06
 Reference value :  8.53814e-06
 Reference value :  8.54075e-06
 Reference value :  8.54293e-06
 Reference value :  8.54506e-06
 Reference value :  8.54688e-06
 Reference value :  8.54881e-06
 Reference value :  8.55044e-06
 Reference value :  8.55166e-06
 Reference value :  8.55317e-06
 Reference value :  8.55536e-06
 Reference value :  8.55762e-06
 Reference value :  8.56092e-06
 Reference value :  8.56461e-06
 Reference value :  8.56918e-06
 Reference value :  8.57360e-06
 Reference value :  8.57835e-06
 Reference value :  8.58236e-06
 Reference value :  8.58612e-06
 Reference value :  8.58914e-06
 Reference value :  8.59229e-06
 Reference value :  8.59513e-06
 Reference value :  8.59818e-06
 Reference value :  8.60164e-06
 Reference value :  8.60753e-06
 Reference value :  8.61415e-06
 Reference value :  8.62098e-06
 Reference value :  8.62766e-06
 Reference value :  8.63539e-06
 Reference value :  8.65085e-06
 Reference value :  8.67682e-06
 Reference value :  8.71919e-06
 Reference value :  8.75010e-06
 Reference value :  8.75011e-06
 Reference value :  8.75013e-06
 Reference value :  8.75017e-06
 Reference value :  8.75020e-06
 Reference value :  8.75020e-06
 Reference value :  8.75020e-06
 Reference value :  8.75021e-06
 Reference value :  8.75021e-06
 Reference value :  8.75023e-06
 Reference value :  8.75025e-06
 Reference value :  8.75030e-06
 Reference value :  8.75041e-06
 Reference value :  8.75062e-06
 Reference value :  8.75097e-06
 Reference value :  8.75135e-06
 Reference value :  8.75183e-06
 Reference value :  8.75236e-06
 Reference value :  8.75301e-06
 Reference value :  8.75389e-06
 Reference value :  8.75464e-06
 Reference value :  8.75547e-06
 Reference value :  8.75628e-06
 Reference value :  8.75711e-06
 Reference value :  8.75849e-06
 Reference value :  8.75982e-06
 Reference value :  8.76190e-06
 Reference value :  8.76463e-06
 Reference value :  8.76866e-06
 Reference value :  8.77672e-06
 Reference value :  8.78990e-06
 Reference value :  8.81397e-06
 Reference value :  8.85740e-06
 Reference value :  8.93642e-06
 Reference value :  9.00000e-06
 Reference value :  9.00001e-06
 Reference value :  9.00003e-06
 Reference value :  9.00007e-06
 Reference value :  9.00010e-06
 Reference value :  9.00010e-06
 Reference value :  9.00011e-06
 Reference value :  9.00013e-06
 Reference value :  9.00016e-06
 Reference value :  9.00023e-06
 Reference value :  9.00036e-06
 Reference value :  9.00058e-06
 Reference value :  9.00100e-06
 Reference value :  9.00150e-06
 Reference value :  9.00203e-06
 Reference value :  9.00251e-06
 Reference value :  9.00308e-06
 Reference value :  9.00370e-06
 Reference value :  9.00446e-06
 Reference value :  9.00524e-06
 Reference value :  9.00600e-06
 Reference value :  9.00723e-06
 Reference value :  9.00837e-06
 Reference value :  9.01018e-06
 Reference value :  9.01230e-06
 Reference value :  9.01385e-06
 Reference value :  9.01558e-06
 Reference value :  9.01731e-06
 Reference value :  9.01929e-06
 Reference value :  9.02157e-06
 Reference value :  9.02375e-06
 Reference value :  9.02805e-06
 Reference value :  9.03414e-06
 Reference value :  9.04259e-06
 Reference value :  9.05949e-06
 Reference value :  9.08879e-06
 Reference value :  9.14542e-06
 Reference value :  9.25010e-06
 Reference value :  9.25011e-06
 Reference value :  9.25013e-06
 Reference value :  9.25017e-06
 Reference value :  9.25020e-06
 Reference value :  9.25020e-06
 Reference value :  9.25020e-06
 Reference value :  9.25021e-06
 Reference value :  9.25021e-06
 Reference value :  9.25023e-06
 Reference value :  9.25025e-06
 Reference value :  9.25031e-06
 Reference value :  9.25041e-06
 Reference value :  9.25062e-06
 Reference value :  9.25098e-06
 Reference value :  9.25136e-06
 Reference value :  9.25184e-06
 Reference value :  9.25237e-06
 Reference value :  9.25309e-06
 Reference value :  9.25394e-06
 Reference value :  9.25467e-06
 Reference value :  9.25553e-06
 Reference value :  9.25627e-06
 Reference value :  9.25705e-06
 Reference value :  9.25793e-06
 Reference value :  9.25893e-06
 Reference value :  9.25982e-06
 Reference value :  9.26114e-06
 Reference value :  9.26249e-06
 Reference value :  9.26449e-06
 Reference value :  9.26691e-06
 Reference value :  9.27028e-06
 Reference value :  9.27563e-06
 Reference value :  9.28274e-06
 Reference value :  9.29380e-06
 Reference value :  9.30968e-06
 Reference value :  9.33725e-06
 Reference value :  9.38325e-06
 Reference value :  9.45703e-06
 Reference value :  9.50000e-06
 Reference value :  9.50001e-06
 Reference value :  9.50003e-06
 Reference value :  9.50007e-06
 Reference value :  9.50010e-06
 Reference value :  9.50010e-06
 Reference value :  9.50011e-06
 Reference value :  9.50013e-06
 Reference value :  9.50017e-06
 Reference value :  9.50023e-06
 Reference value :  9.50036e-06
 Reference value :  9.50058e-06
 Reference value :  9.50100e-06
 Reference value :  9.50150e-06
 Reference value :  9.50203e-06
 Reference value :  9.50254e-06
 Reference value :  9.50314e-06
 Reference value :  9.50371e-06
 Reference value :  9.50450e-06
 Reference value :  9.50523e-06
 Reference value :  9.50594e-06
 Reference value :  9.50680e-06
 Reference value :  9.50769e-06
 Reference value :  9.50851e-06
 Reference value :  9.50939e-06
 Reference value :  9.51049e-06
 Reference value :  9.51199e-06
 Reference value :  9.51394e-06
 Reference value :  9.51528e-06
 Reference value :  9.51678e-06
 Reference value :  9.51821e-06
 Reference value :  9.51960e-06
 Reference value :  9.52061e-06
 Reference value :  9.52171e-06
 Reference value :  9.52304e-06
 Reference value :  9.52441e-06
 Reference value :  9.52582e-06
 Reference value :  9.52823e-06
 Reference value :  9.53043e-06
 Reference value :  9.53483e-06
 Reference value :  9.54206e-06
 Reference value :  9.55290e-06
 Reference value :  9.57410e-06
 Reference value :  9.61297e-06
 Reference value :  9.67570e-06
 Reference value :  9.74016e-06
 Reference value :  9.75010e-06
 Reference value :  9.75011e-06
 Reference value :  9.75013e-06
 Reference value :  9.75017e-06
 Reference value :  9.75020e-06
 Reference value :  9.75020e-06
 Reference value :  9.75020e-06
 Reference value :  9.75021e-06
 Reference value :  9.75021e-06
 Reference value :  9.75023e-06
 Reference value :  9.75025e-06
 Reference value :  9.75030e-06
 Reference value :  9.75041e-06
 Reference value :  9.75062e-06
 Reference value :  9.75097e-06
 Reference value :  9.75134e-06
 Reference value :  9.75181e-06
 Reference value :  9.75235e-06
 Reference value :  9.75303e-06
 Reference value :  9.75387e-06
 Reference value :  9.75467e-06
 Reference value :  9.75553e-06
 Reference value :  9.75641e-06
 Reference value :  9.75727e-06
 Reference value :  9.75872e-06
 Reference value :  9.76011e-06
 Reference value :  9.76221e-06
 Reference value :  9.76506e-06
 Reference value :  9.76962e-06
 Reference value :  9.77874e-06
 Reference value :  9.79264e-06
 Reference value :  9.81930e-06
 Reference value :  9.86494e-06
 Reference value :  9.92958e-06
 Reference value :  1.00000e-05
 Reference value :  1.00000e-05
 Reference value :  1.00000e-05
 Reference value :  1.00001e-05
 Reference value :  1.00001e-05
 Reference value :  1.00001e-05
 Reference value :  1.00001e-05
 Reference value :  1.00001e-05
 Reference value :  1.00002e-05
 Reference value :  1.00002e-05
 Reference value :  1.00004e-05
 Reference value :  1.00006e-05
 Reference value :  1.00010e-05
 Reference value :  1.00015e-05
 Reference value :  1.00020e-05
 Reference value :  1.00025e-05
 Reference value :  1.00030e-05
 Reference value :  1.00036e-05
 Reference value :  1.00042e-05
 Reference value :  1.00050e-05
 Reference value :  1.00058e-05
 Reference value :  1.00068e-05
 Reference value :  1.00079e-05
 Reference value :  1.00094e-05
 Reference value :  1.00104e-05
 Reference value :  1.00115e-05
 Reference value :  1.00128e-05
 Reference value :  1.00143e-05
 Reference value :  1.00157e-05
 Reference value :  1.00174e-05
 Reference value :  1.00207e-05
 Reference value :  1.00251e-05
 Reference value :  1.00340e-05
 Reference value :  1.00503e-05
 Reference value :  1.00798e-05
 Reference value :  1.01389e-05
 Reference value :  1.02501e-05
 Reference value :  1.02501e-05
 Reference value :  1.02501e-05
 Reference value :  1.02502e-05
 Reference value :  1.02502e-05
 Reference value :  1.02502e-05
 Reference value :  1.02502e-05
 Reference value :  1.02502e-05
 Reference value :  1.02502e-05
 Reference value :  1.02502e-05
 Reference value :  1.02503e-05
 Reference value :  1.02503e-05
 Reference value :  1.02504e-05
 Reference value :  1.02506e-05
 Reference value :  1.02510e-05
 Reference value :  1.02513e-05
 Reference value :  1.02518e-05
 Reference value :  1.02523e-05
 Reference value :  1.02530e-05
 Reference value :  1.02539e-05
 Reference value :  1.02546e-05
 Reference value :  1.02555e-05
 Reference value :  1.02564e-05
 Reference value :  1.02572e-05
 Reference value :  1.02581e-05
 Reference value :  1.02591e-05
 Reference value :  1.02604e-05
 Reference value :  1.02616e-05
 Reference value :  1.02634e-05
 Reference value :  1.02655e-05
 Reference value :  1.02687e-05
 Reference value :  1.02734e-05
 Reference value :  1.02827e-05
 Reference value :  1.03014e-05
 Reference value :  1.03372e-05
 Reference value :  1.04087e-05
 Reference value :  1.05000e-05
 Reference value :  1.05000e-05
 Reference value :  1.05000e-05
 Reference value :  1.05001e-05
 Reference value :  1.05001e-05
 Reference value :  1.05001e-05
 Reference value :  1.05001e-05
 Reference value :  1.05001e-05
 Reference value :  1.05002e-05
 Reference value :  1.05002e-05
 Reference value :  1.05004e-05
 Reference value :  1.05006e-05
 Reference value :  1.05010e-05
 Reference value :  1.05015e-05
 Reference value :  1.05020e-05
 Reference value :  1.05025e-05
 Reference value :  1.05030e-05
 Reference value :  1.05036e-05
 Reference value :  1.05043e-05
 Reference value :  1.05050e-05
 Reference value :  1.05056e-05
 Reference value :  1.05063e-05
 Reference value :  1.05070e-05
 Reference value :  1.05077e-05
 Reference value :  1.05085e-05
 Reference value :  1.05093e-05
 Reference value :  1.05103e-05
 Reference value :  1.05118e-05
 Reference value :  1.05140e-05
 Reference value :  1.05154e-05
 Reference value :  1.05170e-05
 Reference value :  1.05185e-05
 Reference value :  1.05197e-05
 Reference value :  1.05208e-05
 Reference value :  1.05220e-05
 Reference value :  1.05232e-05
 Reference value :  1.05246e-05
 Reference value :  1.05260e-05
 Reference value :  1.05284e-05
 Reference value :  1.05306e-05
 Reference value :  1.05350e-05
 Reference value :  1.05426e-05
 Reference value :  1.05544e-05
 Reference value :  1.05748e-05
 Reference value :  1.06046e-05
 Reference value :  1.06522e-05
 Reference value :  1.07376e-05
 Reference value :  1.07501e-05
 Reference value :  1.07501e-05
 Reference value :  1.07501e-05
 Reference value :  1.07502e-05
 Reference value :  1.07502e-05
 Reference value :  1.07502e-05
 Reference value :  1.07502e-05
 Reference value :  1.07502e-05
 Reference value :  1.07502e-05
 Reference value :  1.07502e-05
 Reference value :  1.07503e-05
 Reference value :  1.07503e-05
 Reference value :  1.07504e-05
 Reference value :  1.07506e-05
 Reference value :  1.07510e-05
 Reference value :  1.07514e-05
 Reference value :  1.07518e-05
 Reference value :  1.07524e-05
 Reference value :  1.07531e-05
 Reference value :  1.07539e-05
 Reference value :  1.07546e-05
 Reference value :  1.07555e-05
 Reference value :  1.07564e-05
 Reference value :  1.07572e-05
 Reference value :  1.07587e-05
 Reference value :  1.07600e-05
 Reference value :  1.07621e-05
 Reference value :  1.07649e-05
 Reference value :  1.07693e-05
 Reference value :  1.07782e-05
 Reference value :  1.07918e-05
 Reference value :  1.08178e-05
 Reference value :  1.08626e-05
 Reference value :  1.09255e-05
 Reference value :  1.09881e-05
 Reference value :  1.10000e-05
 Reference value :  1.10000e-05
 Reference value :  1.10000e-05
 Reference value :  1.10001e-05
 Reference value :  1.10001e-05
 Reference value :  1.10001e-05
 Reference value :  1.10001e-05
 Reference value :  1.10001e-05
 Reference value :  1.10002e-05
 Reference value :  1.10002e-05
 Reference value :  1.10004e-05
 Reference value :  1.10006e-05
 Reference value :  1.10010e-05
 Reference value :  1.10015e-05
 Reference value :  1.10020e-05
 Reference value :  1.10025e-05
 Reference value :  1.10030e-05
 Reference value :  1.10036e-05
 Reference value :  1.10042e-05
 Reference value :  1.10050e-05
 Reference value :  1.10058e-05
 Reference value :  1.10068e-05
 Reference value :  1.10079e-05
 Reference value :  1.10094e-05
 Reference value :  1.10104e-05
 Reference value :  1.10115e-05
 Reference value :  1.10127e-05
 Reference value :  1.10141e-05
 Reference value :  1.10156e-05
 Reference value :  1.10172e-05
 Reference value :  1.10203e-05
 Reference value :  1.10254e-05
 Reference value :  1.10349e-05
 Reference value :  1.10532e-05
 Reference value :  1.10869e-05
 Reference value :  1.11542e-05
 Reference value :  1.12501e-05
 Reference value :  1.12501e-05
 Reference value :  1.12501e-05
 Reference value :  1.12502e-05
 Reference value :  1.12502e-05
 Reference value :  1.12502e-05
 Reference value :  1.12502e-05
 Reference value :  1.12502e-05
 Reference value :  1.12502e-05
 Reference value :  1.12502e-05
 Reference value :  1.12503e-05
 Reference value :  1.12503e-05
 Reference value :  1.12504e-05
 Reference value :  1.12506e-05
 Reference value :  1.12510e-05
 Reference value :  1.12513e-05
 Reference value :  1.12518e-05
 Reference value :  1.12523e-05
 Reference value :  1.12530e-05
 Reference value :  1.12539e-05
 Reference value :  1.12546e-05
 Reference value :  1.12555e-05
 Reference value :  1.12564e-05
 Reference value :  1.12572e-05
 Reference value :  1.12581e-05
 Reference value :  1.12591e-05
 Reference value :  1.12604e-05
 Reference value :  1.12616e-05
 Reference value :  1.12634e-05
 Reference value :  1.12655e-05
 Reference value :  1.12687e-05
 Reference value :  1.12734e-05
 Reference value :  1.12828e-05
 Reference value :  1.13015e-05
 Reference value :  1.13374e-05
 Reference value :  1.14093e-05
 Reference value :  1.15000e-05
 Reference value :  1.15000e-05
 Reference value :  1.15000e-05
 Reference value :  1.15001e-05
 Reference value :  1.15001e-05
 Reference value :  1.15001e-05
 Reference value :  1.15001e-05
 Reference value :  1.15001e-05
 Reference value :  1.15002e-05
 Reference value :  1.15002e-05
 Reference value :  1.15004e-05
 Reference value :  1.15006e-05
 Reference value :  1.15010e-05
 Reference value :  1.15015e-05
 Reference value :  1.15020e-05
 Reference value :  1.15025e-05
 Reference value :  1.15030e-05
 Reference value :  1.15036e-05
 Reference value :  1.15043e-05
 Reference value :  1.15050e-05
 Reference value :  1.15056e-05
 Reference value :  1.15063e-05
 Reference value :  1.15070e-05
 Reference value :  1.15077e-05
 Reference value :  1.15084e-05
 Reference value :  1.15093e-05
 Reference value :  1.15103e-05
 Reference value :  1.15119e-05
 Reference value :  1.15134e-05
 Reference value :  1.15150e-05
 Reference value :  1.15165e-05
 Reference value :  1.15179e-05
 Reference value :  1.15190e-05
 Reference value :  1.15200e-05
 Reference value :  1.15212e-05
 Reference value :  1.15223e-05
 Reference value :  1.15234e-05
 Reference value :  1.15246e-05
 Reference value :  1.15264e-05
 Reference value :  1.15282e-05
 Reference value :  1.15314e-05
 Reference value :  1.15367e-05
 Reference value :  1.15449e-05
 Reference value :  1.15596e-05
 Reference value :  1.15836e-05
 Reference value :  1.16206e-05
 Reference value :  1.16521e-05
 Reference value :  1.16886e-05
 Reference value :  1.17185e-05
 Reference value :  1.17499e-05
 Reference value :  1.17501e-05
 Reference value :  1.17501e-05
 Reference value :  1.17501e-05
 Reference value :  1.17502e-05
 Reference value :  1.17502e-05
 Reference value :  1.17502e-05
 Reference value :  1.17502e-05
 Reference value :  1.17502e-05
 Reference value :  1.17502e-05
 Reference value :  1.17502e-05
 Reference value :  1.17503e-05
 Reference value :  1.17503e-05
 Reference value :  1.17504e-05
 Reference value :  1.17506e-05
 Reference value :  1.17510e-05
 Reference value :  1.17513e-05
 Reference value :  1.17518e-05
 Reference value :  1.17523e-05
 Reference value :  1.17530e-05
 Reference value :  1.17539e-05
 Reference value :  1.17546e-05
 Reference value :  1.17555e-05
 Reference value :  1.17564e-05
 Reference value :  1.17572e-05
 Reference value :  1.17587e-05
 Reference value :  1.17600e-05
 Reference value :  1.17621e-05
 Reference value :  1.17649e-05
 Reference value :  1.17694e-05
 Reference value :  1.17782e-05
 Reference value :  1.17920e-05
 Reference value :  1.18182e-05
 Reference value :  1.18637e-05
 Reference value :  1.19440e-05
 Reference value :  1.20000e-05
 Reference value :  1.20000e-05
 Reference value :  1.20000e-05
 Reference value :  1.20001e-05
 Reference value :  1.20001e-05
 Reference value :  1.20001e-05
 Reference value :  1.20001e-05
 Reference value :  1.20001e-05
 Reference value :  1.20002e-05
 Reference value :  1.20002e-05
 Reference value :  1.20004e-05
 Reference value :  1.20006e-05
 Reference value :  1.20010e-05
 Reference value :  1.20015e-05
 Reference value :  1.20020e-05
 Reference value :  1.20025e-05
 Reference value :  1.20030e-05
 Reference value :  1.20036e-05
 Reference value :  1.20042e-05
 Reference value :  1.20049e-05
 Reference value :  1.20057e-05
 Reference value :  1.20068e-05
 Reference value :  1.20078e-05
 Reference value :  1.20093e-05
 Reference value :  1.20103e-05
 Reference value :  1.20114e-05
 Reference value :  1.20125e-05
 Reference value :  1.20137e-05
 Reference value :  1.20150e-05
 Reference value :  1.20164e-05
 Reference value :  1.20192e-05
 Reference value :  1.20247e-05
 Reference value :  1.20341e-05
 Reference value :  1.20528e-05
 Reference value :  1.20903e-05
 Reference value :  1.21653e-05
 Reference value :  1.22501e-05
 Reference value :  1.22501e-05
 Reference value :  1.22501e-05
 Reference value :  1.22502e-05
 Reference value :  1.22502e-05
 Reference value :  1.22502e-05
 Reference value :  1.22502e-05
 Reference value :  1.22502e-05
 Reference value :  1.22502e-05
 Reference value :  1.22502e-05
 Reference value :  1.22503e-05
 Reference value :  1.22503e-05
 Reference value :  1.22504e-05
 Reference value :  1.22506e-05
 Reference value :  1.22510e-05
 Reference value :  1.22513e-05
 Reference value :  1.22518e-05
 Reference value :  1.22523e-05
 Reference value :  1.22530e-05
 Reference value :  1.22539e-05
 Reference value :  1.22546e-05
 Reference value :  1.22555e-05
 Reference value :  1.22564e-05
 Reference value :  1.22572e-05
 Reference value :  1.22581e-05
 Reference value :  1.22591e-05
 Reference value :  1.22603e-05
 Reference value :  1.22616e-05
 Reference value :  1.22634e-05
 Reference value :  1.22655e-05
 Reference value :  1.22687e-05
 Reference value :  1.22733e-05
 Reference value :  1.22827e-05
 Reference value :  1.23013e-05
 Reference value :  1.23371e-05
 Reference value :  1.24086e-05
 Reference value :  1.25000e-05
 Reference value :  1.25000e-05
 Reference value :  1.25000e-05
 Reference value :  1.25001e-05
 Reference value :  1.25001e-05
 Reference value :  1.25001e-05
 Reference value :  1.25001e-05
 Reference value :  1.25001e-05
 Reference value :  1.25002e-05
 Reference value :  1.25002e-05
 Reference value :  1.25004e-05
 Reference value :  1.25006e-05
 Reference value :  1.25010e-05
 Reference value :  1.25015e-05
 Reference value :  1.25020e-05
 Reference value :  1.25025e-05
 Reference value :  1.25030e-05
 Reference value :  1.25036e-05
 Reference value :  1.25043e-05
 Reference value :  1.25050e-05
 Reference value :  1.25056e-05
 Reference value :  1.25063e-05
 Reference value :  1.25070e-05
 Reference value :  1.25077e-05
 Reference value :  1.25084e-05
 Reference value :  1.25094e-05
 Reference value :  1.25103e-05
 Reference value :  1.25120e-05
 Reference value :  1.25130e-05
 Reference value :  1.25142e-05
 Reference value :  1.25154e-05
 Reference value :  1.25168e-05
 Reference value :  1.25183e-05
 Reference value :  1.25195e-05
 Reference value :  1.25207e-05
 Reference value :  1.25219e-05
 Reference value :  1.25232e-05
 Reference value :  1.25247e-05
 Reference value :  1.25263e-05
 Reference value :  1.25286e-05
 Reference value :  1.25314e-05
 Reference value :  1.25371e-05
 Reference value :  1.25479e-05
 Reference value :  1.25625e-05
 Reference value :  1.25805e-05
 Reference value :  1.25970e-05
 Reference value :  1.26115e-05
 Reference value :  1.26284e-05
 Reference value :  1.26455e-05
 Reference value :  1.26727e-05
 Reference value :  1.27098e-05
 Reference value :  1.27501e-05
 Reference value :  1.27501e-05
 Reference value :  1.27501e-05
 Reference value :  1.27502e-05
 Reference value :  1.27502e-05
 Reference value :  1.27502e-05
 Reference value :  1.27502e-05
 Reference value :  1.27502e-05
 Reference value :  1.27502e-05
 Reference value :  1.27502e-05
 Reference value :  1.27503e-05
 Reference value :  1.27503e-05
 Reference value :  1.27504e-05
 Reference value :  1.27506e-05
 Reference value :  1.27510e-05
 Reference value :  1.27514e-05
 Reference value :  1.27518e-05
 Reference value :  1.27524e-05
 Reference value :  1.27531e-05
 Reference value :  1.27539e-05
 Reference value :  1.27546e-05
 Reference value :  1.27555e-05
 Reference value :  1.27564e-05
 Reference value :  1.27572e-05
 Reference value :  1.27585e-05
 Reference value :  1.27599e-05
 Reference value :  1.27619e-05
 Reference value :  1.27647e-05
 Reference value :  1.27687e-05
 Reference value :  1.27767e-05
 Reference value :  1.27901e-05
 Reference value :  1.28141e-05
 Reference value :  1.28580e-05
 Reference value :  1.29457e-05
 Reference value :  1.30000e-05
 Reference value :  1.30000e-05
 Reference value :  1.30000e-05
 Reference value :  1.30001e-05
 Reference value :  1.30001e-05
 Reference value :  1.30001e-05
 Reference value :  1.30001e-05
 Reference value :  1.30001e-05
 Reference value :  1.30002e-05
 Reference value :  1.30002e-05
 Reference value :  1.30004e-05
 Reference value :  1.30006e-05
 Reference value :  1.30010e-05
 Reference value :  1.30015e-05
 Reference value :  1.30020e-05
 Reference value :  1.30024e-05
 Reference value :  1.30030e-05
 Reference value :  1.30036e-05
 Reference value :  1.30042e-05
 Reference value :  1.30049e-05
 Reference value :  1.30057e-05
 Reference value :  1.30068e-05
 Reference value :  1.30078e-05
 Reference value :  1.30092e-05
 Reference value :  1.30101e-05
 Reference value :  1.30112e-05
 Reference value :  1.30122e-05
 Reference value :  1.30134e-05
 Reference value :  1.30145e-05
 Reference value :  1.30159e-05
 Reference value :  1.30186e-05
 Reference value :  1.30239e-05
 Reference value :  1.30335e-05
 Reference value :  1.30525e-05
 Reference value :  1.30905e-05
 Reference value :  1.31667e-05
 Reference value :  1.32501e-05
 Reference value :  1.32501e-05
 Reference value :  1.32501e-05
 Reference value :  1.32502e-05
 Reference value :  1.32502e-05
 Reference value :  1.32502e-05
 Reference value :  1.32502e-05
 Reference value :  1.32502e-05
 Reference value :  1.32502e-05
 Reference value :  1.32502e-05
 Reference value :  1.32503e-05
 Reference value :  1.32503e-05
 Reference value :  1.32504e-05
 Reference value :  1.32506e-05
 Reference value :  1.32510e-05
 Reference value :  1.32513e-05
 Reference value :  1.32518e-05
 Reference value :  1.32523e-05
 Reference value :  1.32530e-05
 Reference value :  1.32539e-05
 Reference value :  1.32546e-05
 Reference value :  1.32555e-05
 Reference value :  1.32564e-05
 Reference value :  1.32571e-05
 Reference value :  1.32581e-05
 Reference value :  1.32591e-05
 Reference value :  1.32603e-05
 Reference value :  1.32615e-05
 Reference value :  1.32634e-05
 Reference value :  1.32655e-05
 Reference value :  1.32686e-05
 Reference value :  1.32732e-05
 Reference value :  1.32825e-05
 Reference value :  1.33009e-05
 Reference value :  1.33362e-05
 Reference value :  1.34067e-05
 Reference value :  1.35000e-05
 Reference value :  1.35000e-05
 Reference value :  1.35000e-05
 Reference value :  1.35001e-05
 Reference value :  1.35001e-05
 Reference value :  1.35001e-05
 Reference value :  1.35001e-05
 Reference value :  1.35001e-05
 Reference value :  1.35002e-05
 Reference value :  1.35002e-05
 Reference value :  1.35004e-05
 Reference value :  1.35006e-05
 Reference value :  1.35010e-05
 Reference value :  1.35015e-05
 Reference value :  1.35020e-05
 Reference value :  1.35025e-05
 Reference value :  1.35030e-05
 Reference value :  1.35036e-05
 Reference value :  1.35043e-05
 Reference value :  1.35050e-05
 Reference value :  1.35056e-05
 Reference value :  1.35063e-05
 Reference value :  1.35070e-05
 Reference value :  1.35077e-05
 Reference value :  1.35084e-05
 Reference value :  1.35093e-05
 Reference value :  1.35103e-05
 Reference value :  1.35119e-05
 Reference value :  1.35130e-05
 Reference value :  1.35142e-05
 Reference value :  1.35155e-05
 Reference value :  1.35169e-05
 Reference value :  1.35185e-05
 Reference value :  1.35196e-05
 Reference value :  1.35209e-05
 Reference value :  1.35221e-05
 Reference value :  1.35234e-05
 Reference value :  1.35249e-05
 Reference value :  1.35265e-05
 Reference value :  1.35288e-05
 Reference value :  1.35319e-05
 Reference value :  1.35382e-05
 Reference value :  1.35459e-05
 Reference value :  1.35533e-05
 Reference value :  1.35586e-05
 Reference value :  1.35635e-05
 Reference value :  1.35684e-05
 Reference value :  1.35731e-05
 Reference value :  1.35808e-05
 Reference value :  1.35905e-05
 Reference value :  1.36046e-05
 Reference value :  1.36288e-05
 Reference value :  1.36619e-05
 Reference value :  1.37160e-05
 Reference value :  1.37501e-05
 Reference value :  1.37501e-05
 Reference value :  1.37501e-05
 Reference value :  1.37502e-05
 Reference value :  1.37502e-05
 Reference value :  1.37502e-05
 Reference value :  1.37502e-05
 Reference value :  1.37502e-05
 Reference value :  1.37502e-05
 Reference value :  1.37502e-05
 Reference value :  1.37503e-05
 Reference value :  1.37503e-05
 Reference value :  1.37504e-05
 Reference value :  1.37506e-05
 Reference value :  1.37510e-05
 Reference value :  1.37513e-05
 Reference value :  1.37518e-05
 Reference value :  1.37523e-05
 Reference value :  1.37531e-05
 Reference value :  1.37539e-05
 Reference value :  1.37547e-05
 Reference value :  1.37556e-05
 Reference value :  1.37564e-05
 Reference value :  1.37573e-05
 Reference value :  1.37587e-05
 Reference value :  1.37601e-05
 Reference value :  1.37622e-05
 Reference value :  1.37650e-05
 Reference value :  1.37696e-05
 Reference value :  1.37788e-05
 Reference value :  1.37927e-05
 Reference value :  1.38196e-05
 Reference value :  1.38653e-05
 Reference value :  1.39461e-05
 Reference value :  1.40000e-05
 Reference value :  1.40000e-05
 Reference value :  1.40000e-05
 Reference value :  1.40001e-05
 Reference value :  1.40001e-05
 Reference value :  1.40001e-05
 Reference value :  1.40001e-05
 Reference value :  1.40001e-05
 Reference value :  1.40002e-05
 Reference value :  1.40002e-05
 Reference value :  1.40004e-05
 Reference value :  1.40006e-05
 Reference value :  1.40010e-05
 Reference value :  1.40015e-05
 Reference value :  1.40020e-05
 Reference value :  1.40025e-05
 Reference value :  1.40030e-05
 Reference value :  1.40036e-05
 Reference value :  1.40043e-05
 Reference value :  1.40050e-05
 Reference value :  1.40059e-05
 Reference value :  1.40070e-05
 Reference value :  1.40081e-05
 Reference value :  1.40094e-05
 Reference value :  1.40105e-05
 Reference value :  1.40117e-05
 Reference value :  1.40130e-05
 Reference value :  1.40143e-05
 Reference value :  1.40160e-05
 Reference value :  1.40178e-05
 Reference value :  1.40211e-05
 Reference value :  1.40258e-05
 Reference value :  1.40340e-05
 Reference value :  1.40487e-05
 Reference value :  1.40736e-05
 Reference value :  1.41199e-05
 Reference value :  1.42017e-05
 Reference value :  1.42501e-05
 Reference value :  1.42501e-05
 Reference value :  1.42501e-05
 Reference value :  1.42502e-05
 Reference value :  1.42502e-05
 Reference value :  1.42502e-05
 Reference value :  1.42502e-05
 Reference value :  1.42502e-05
 Reference value :  1.42502e-05
 Reference value :  1.42502e-05
 Reference value :  1.42503e-05
 Reference value :  1.42503e-05
 Reference value :  1.42504e-05
 Reference value :  1.42506e-05
 Reference value :  1.42510e-05
 Reference value :  1.42514e-05
 Reference value :  1.42518e-05
 Reference value :  1.42524e-05
 Reference value :  1.42531e-05
 Reference value :  1.42539e-05
 Reference value :  1.42546e-05
 Reference value :  1.42555e-05
 Reference value :  1.42563e-05
 Reference value :  1.42571e-05
 Reference value :  1.42580e-05
 Reference value :  1.42590e-05
 Reference value :  1.42608e-05
 Reference value :  1.42633e-05
 Reference value :  1.42666e-05
 Reference value :  1.42728e-05
 Reference value :  1.42851e-05
 Reference value :  1.43063e-05
 Reference value :  1.43486e-05
 Reference value :  1.44332e-05
 Reference value :  1.45000e-05
 Reference value :  1.45000e-05
 Reference value :  1.45000e-05
 Reference value :  1.45001e-05
 Reference value :  1.45001e-05
 Reference value :  1.45001e-05
 Reference value :  1.45001e-05
 Reference value :  1.45001e-05
 Reference value :  1.45002e-05
 Reference value :  1.45002e-05
 Reference value :  1.45004e-05
 Reference value :  1.45006e-05
 Reference value :  1.45010e-05
 Reference value :  1.45015e-05
 Reference value :  1.45020e-05
 Reference value :  1.45025e-05
 Reference value :  1.45030e-05
 Reference value :  1.45036e-05
 Reference value :  1.45043e-05
 Reference value :  1.45050e-05
 Reference value :  1.45057e-05
 Reference value :  1.45065e-05
 Reference value :  1.45072e-05
 Reference value :  1.45080e-05
 Reference value :  1.45088e-05
 Reference value :  1.45098e-05
 Reference value :  1.45112e-05
 Reference value :  1.45133e-05
 Reference value :  1.45157e-05
 Reference value :  1.45175e-05
 Reference value :  1.45194e-05
 Reference value :  1.45209e-05
 Reference value :  1.45225e-05
 Reference value :  1.45241e-05
 Reference value :  1.45259e-05
 Reference value :  1.45278e-05
 Reference value :  1.45303e-05
 Reference value :  1.45343e-05
 Reference value :  1.45423e-05
 Reference value :  1.45522e-05
 Reference value :  1.45633e-05
 Reference value :  1.45797e-05
 Reference value :  1.45985e-05
 Reference value :  1.46361e-05
 Reference value :  1.47114e-05
 Reference value :  1.47501e-05
 Reference value :  1.47501e-05
 Reference value :  1.47501e-05
 Reference value :  1.47502e-05
 Reference value :  1.47502e-05
 Reference value :  1.47502e-05
 Reference value :  1.47502e-05
 Reference value :  1.47502e-05
 Reference value :  1.47502e-05
 Reference value :  1.47502e-05
 Reference value :  1.47503e-05
 Reference value :  1.47503e-05
 Reference value :  1.47504e-05
 Reference value :  1.47506e-05
 Reference value :  1.47510e-05
 Reference value :  1.47514e-05
 Reference value :  1.47518e-05
 Reference value :  1.47524e-05
 Reference value :  1.47531e-05
 Reference value :  1.47539e-05
 Reference value :  1.47547e-05
 Reference value :  1.47555e-05
 Reference value :  1.47564e-05
 Reference value :  1.47573e-05
 Reference value :  1.47587e-05
 Reference value :  1.47601e-05
 Reference value :  1.47622e-05
 Reference value :  1.47650e-05
 Reference value :  1.47696e-05
 Reference value :  1.47787e-05
 Reference value :  1.47925e-05
 Reference value :  1.48192e-05
 Reference value :  1.48645e-05
 Reference value :  1.49443e-05
 Reference value :  1.50000e-05
 Reference value :  1.50000e-05
 Reference value :  1.50000e-05
 Reference value :  1.50001e-05
 Reference value :  1.50001e-05
 Reference value :  1.50001e-05
 Reference value :  1.50001e-05
 Reference value :  1.50001e-05
 Reference value :  1.50002e-05
 Reference value :  1.50002e-05
 Reference value :  1.50004e-05
 Reference value :  1.50006e-05
 Reference value :  1.50010e-05
 Reference value :  1.50015e-05
 Reference value :  1.50020e-05
 Reference value :  1.50025e-05
 Reference value :  1.50030e-05
 Reference value :  1.50036e-05
 Reference value :  1.50043e-05
 Reference value :  1.50050e-05
 Reference value :  1.50058e-05
 Reference value :  1.50069e-05
 Reference value :  1.50080e-05
 Reference value :  1.50093e-05
 Reference value :  1.50103e-05
 Reference value :  1.50115e-05
 Reference value :  1.50125e-05
 Reference value :  1.50137e-05
 Reference value :  1.50150e-05
 Reference value :  1.50164e-05
 Reference value :  1.50194e-05
 Reference value :  1.50235e-05
 Reference value :  1.50319e-05
 Reference value :  1.50482e-05
 Reference value :  1.50783e-05
 Reference value :  1.51385e-05
 Reference value :  1.52501e-05
 Reference value :  1.52501e-05
 Reference value :  1.52501e-05
 Reference value :  1.52502e-05
 Reference value :  1.52502e-05
 Reference value :  1.52502e-05
 Reference value :  1.52502e-05
 Reference value :  1.52502e-05
 Reference value :  1.52502e-05
 Reference value :  1.52502e-05
 Reference value :  1.52503e-05
 Reference value :  1.52503e-05
 Reference value :  1.52504e-05
 Reference value :  1.52506e-05
 Reference value :  1.52510e-05
 Reference value :  1.52513e-05
 Reference value :  1.52518e-05
 Reference value :  1.52523e-05
 Reference value :  1.52530e-05
 Reference value :  1.52539e-05
 Reference value :  1.52546e-05
 Reference value :  1.52555e-05
 Reference value :  1.52563e-05
 Reference value :  1.52571e-05
 Reference value :  1.52580e-05
 Reference value :  1.52590e-05
 Reference value :  1.52608e-05
 Reference value :  1.52633e-05
 Reference value :  1.52666e-05
 Reference value :  1.52728e-05
 Reference value :  1.52852e-05
 Reference value :  1.53067e-05
 Reference value :  1.53496e-05
 Reference value :  1.54353e-05
 Reference value :  1.55000e-05
 Reference value :  1.55009e-05
 Reference value :  1.55028e-05
 Reference value :  1.55037e-05
 Reference value :  1.55047e-05
 Reference value :  1.55055e-05
 Reference value :  1.55063e-05
 Reference value :  1.55071e-05
 Reference value :  1.55077e-05
 Reference value :  1.55085e-05
 Reference value :  1.55093e-05
 Reference value :  1.55103e-05
 Reference value :  1.55118e-05
 Reference value :  1.55139e-05
 Reference value :  1.55163e-05
 Reference value :  1.55181e-05
 Reference value :  1.55198e-05
 Reference value :  1.55212e-05
 Reference value :  1.55228e-05
 Reference value :  1.55244e-05
 Reference value :  1.55260e-05
 Reference value :  1.55278e-05
 Reference value :  1.55303e-05
 Reference value :  1.55337e-05
 Reference value :  1.55379e-05
 Reference value :  1.55432e-05
 Reference value :  1.55490e-05
 Reference value :  1.55591e-05
 Reference value :  1.55761e-05
 Reference value :  1.56101e-05
 Reference value :  1.56717e-05
 Reference value :  1.57501e-05
 Reference value :  1.57501e-05
 Reference value :  1.57501e-05
 Reference value :  1.57502e-05
 Reference value :  1.57502e-05
 Reference value :  1.57502e-05
 Reference value :  1.57502e-05
 Reference value :  1.57502e-05
 Reference value :  1.57502e-05
 Reference value :  1.57502e-05
 Reference value :  1.57503e-05
[...]
 Reference value :  1.31750e-04
 Reference value :  1.31750e-04
 Reference value :  1.31750e-04
 Reference value :  1.31750e-04
 Reference value :  1.31750e-04
 Reference value :  1.31750e-04
 Reference value :  1.31750e-04
 Reference value :  1.31751e-04
 Reference value :  1.31751e-04
 Reference value :  1.31751e-04
 Reference value :  1.31752e-04
 Reference value :  1.31752e-04
 Reference value :  1.31753e-04
 Reference value :  1.31754e-04
 Reference value :  1.31755e-04
 Reference value :  1.31756e-04
 Reference value :  1.31756e-04
 Reference value :  1.31757e-04
 Reference value :  1.31759e-04
 Reference value :  1.31760e-04
 Reference value :  1.31762e-04
 Reference value :  1.31765e-04
 Reference value :  1.31770e-04
 Reference value :  1.31779e-04
 Reference value :  1.31793e-04
 Reference value :  1.31820e-04
 Reference value :  1.31866e-04
 Reference value :  1.31947e-04
 Reference value :  1.32000e-04
 Reference value :  1.32000e-04
 Reference value :  1.32000e-04
 Reference value :  1.32000e-04
 Reference value :  1.32000e-04
 Reference value :  1.32000e-04
 Reference value :  1.32000e-04
 Reference value :  1.32000e-04
 Reference value :  1.32000e-04
 Reference value :  1.32000e-04
 Reference value :  1.32000e-04
 Reference value :  1.32001e-04
 Reference value :  1.32001e-04
 Reference value :  1.32001e-04
 Reference value :  1.32002e-04
 Reference value :  1.32002e-04
 Reference value :  1.32003e-04
 Reference value :  1.32004e-04
 Reference value :  1.32004e-04
 Reference value :  1.32005e-04
 Reference value :  1.32006e-04
 Reference value :  1.32007e-04
 Reference value :  1.32008e-04
 Reference value :  1.32009e-04
 Reference value :  1.32011e-04
 Reference value :  1.32012e-04
 Reference value :  1.32013e-04
 Reference value :  1.32014e-04
 Reference value :  1.32016e-04
 Reference value :  1.32018e-04
 Reference value :  1.32021e-04
 Reference value :  1.32026e-04
 Reference value :  1.32034e-04
 Reference value :  1.32049e-04
 Reference value :  1.32073e-04
 Reference value :  1.32120e-04
 Reference value :  1.32201e-04
 Reference value :  1.32250e-04
 Reference value :  1.32250e-04
 Reference value :  1.32250e-04
 Reference value :  1.32250e-04
 Reference value :  1.32250e-04
 Reference value :  1.32250e-04
 Reference value :  1.32250e-04
 Reference value :  1.32250e-04
 Reference value :  1.32250e-04
 Reference value :  1.32250e-04
 Reference value :  1.32250e-04
 Reference value :  1.32250e-04
 Reference value :  1.32250e-04
 Reference value :  1.32251e-04
 Reference value :  1.32251e-04
 Reference value :  1.32251e-04
 Reference value :  1.32252e-04
 Reference value :  1.32252e-04
 Reference value :  1.32253e-04
 Reference value :  1.32254e-04
 Reference value :  1.32255e-04
 Reference value :  1.32256e-04
 Reference value :  1.32256e-04
 Reference value :  1.32257e-04
 Reference value :  1.32258e-04
 Reference value :  1.32259e-04
 Reference value :  1.32261e-04
 Reference value :  1.32263e-04
 Reference value :  1.32267e-04
 Reference value :  1.32273e-04
 Reference value :  1.32285e-04
 Reference value :  1.32306e-04
 Reference value :  1.32348e-04
 Reference value :  1.32431e-04
 Reference value :  1.32500e-04
 Reference value :  1.32500e-04
 Reference value :  1.32500e-04
 Reference value :  1.32500e-04
 Reference value :  1.32500e-04
 Reference value :  1.32500e-04
 Reference value :  1.32500e-04
 Reference value :  1.32500e-04
 Reference value :  1.32500e-04
 Reference value :  1.32500e-04
 Reference value :  1.32500e-04
 Reference value :  1.32501e-04
 Reference value :  1.32501e-04
 Reference value :  1.32501e-04
 Reference value :  1.32502e-04
 Reference value :  1.32502e-04
 Reference value :  1.32503e-04
 Reference value :  1.32504e-04
 Reference value :  1.32504e-04
 Reference value :  1.32505e-04
 Reference value :  1.32506e-04
 Reference value :  1.32507e-04
 Reference value :  1.32507e-04
 Reference value :  1.32508e-04
 Reference value :  1.32509e-04
 Reference value :  1.32510e-04
 Reference value :  1.32511e-04
 Reference value :  1.32514e-04
 Reference value :  1.32516e-04
 Reference value :  1.32518e-04
 Reference value :  1.32519e-04
 Reference value :  1.32520e-04
 Reference value :  1.32522e-04
 Reference value :  1.32523e-04
 Reference value :  1.32524e-04
 Reference value :  1.32526e-04
 Reference value :  1.32528e-04
 Reference value :  1.32530e-04
 Reference value :  1.32535e-04
 Reference value :  1.32541e-04
 Reference value :  1.32552e-04
 Reference value :  1.32567e-04
 Reference value :  1.32583e-04
 Reference value :  1.32600e-04
 Reference value :  1.32619e-04
 Reference value :  1.32646e-04
 Reference value :  1.32695e-04
 Reference value :  1.32750e-04
 Reference value :  1.32750e-04
 Reference value :  1.32750e-04
 Reference value :  1.32750e-04
 Reference value :  1.32750e-04
 Reference value :  1.32750e-04
 Reference value :  1.32750e-04
 Reference value :  1.32750e-04
 Reference value :  1.32750e-04
 Reference value :  1.32750e-04
 Reference value :  1.32750e-04
 Reference value :  1.32750e-04
 Reference value :  1.32750e-04
 Reference value :  1.32751e-04
 Reference value :  1.32751e-04
 Reference value :  1.32751e-04
 Reference value :  1.32752e-04
 Reference value :  1.32752e-04
 Reference value :  1.32753e-04
 Reference value :  1.32754e-04
 Reference value :  1.32755e-04
 Reference value :  1.32756e-04
 Reference value :  1.32756e-04
 Reference value :  1.32757e-04
 Reference value :  1.32759e-04
 Reference value :  1.32760e-04
 Reference value :  1.32762e-04
 Reference value :  1.32765e-04
 Reference value :  1.32769e-04
 Reference value :  1.32777e-04
 Reference value :  1.32791e-04
 Reference value :  1.32815e-04
 Reference value :  1.32859e-04
 Reference value :  1.32937e-04
 Reference value :  1.33000e-04
 Reference value :  1.33000e-04
 Reference value :  1.33000e-04
 Reference value :  1.33000e-04
 Reference value :  1.33000e-04
 Reference value :  1.33000e-04
 Reference value :  1.33000e-04
 Reference value :  1.33000e-04
 Reference value :  1.33000e-04
 Reference value :  1.33000e-04
 Reference value :  1.33000e-04
 Reference value :  1.33001e-04
 Reference value :  1.33001e-04
 Reference value :  1.33001e-04
 Reference value :  1.33002e-04
 Reference value :  1.33002e-04
 Reference value :  1.33003e-04
 Reference value :  1.33004e-04
 Reference value :  1.33004e-04
 Reference value :  1.33005e-04
 Reference value :  1.33006e-04
 Reference value :  1.33007e-04
 Reference value :  1.33008e-04
 Reference value :  1.33009e-04
 Reference value :  1.33011e-04
 Reference value :  1.33012e-04
 Reference value :  1.33013e-04
 Reference value :  1.33014e-04
 Reference value :  1.33016e-04
 Reference value :  1.33018e-04
 Reference value :  1.33021e-04
 Reference value :  1.33026e-04
 Reference value :  1.33035e-04
 Reference value :  1.33050e-04
 Reference value :  1.33075e-04
 Reference value :  1.33122e-04
 Reference value :  1.33205e-04
 Reference value :  1.33250e-04
 Reference value :  1.33250e-04
 Reference value :  1.33250e-04
 Reference value :  1.33250e-04
 Reference value :  1.33250e-04
 Reference value :  1.33250e-04
 Reference value :  1.33250e-04
 Reference value :  1.33250e-04
 Reference value :  1.33250e-04
 Reference value :  1.33250e-04
 Reference value :  1.33250e-04
 Reference value :  1.33250e-04
 Reference value :  1.33250e-04
 Reference value :  1.33251e-04
 Reference value :  1.33251e-04
 Reference value :  1.33251e-04
 Reference value :  1.33252e-04
 Reference value :  1.33252e-04
 Reference value :  1.33253e-04
 Reference value :  1.33254e-04
 Reference value :  1.33255e-04
 Reference value :  1.33255e-04
 Reference value :  1.33256e-04
 Reference value :  1.33257e-04
 Reference value :  1.33258e-04
 Reference value :  1.33259e-04
 Reference value :  1.33261e-04
 Reference value :  1.33263e-04
 Reference value :  1.33266e-04
 Reference value :  1.33272e-04
 Reference value :  1.33284e-04
 Reference value :  1.33305e-04
 Reference value :  1.33346e-04
 Reference value :  1.33428e-04
 Reference value :  1.33500e-04
 Reference value :  1.33500e-04
 Reference value :  1.33500e-04
 Reference value :  1.33500e-04
 Reference value :  1.33500e-04
 Reference value :  1.33500e-04
 Reference value :  1.33500e-04
 Reference value :  1.33500e-04
 Reference value :  1.33500e-04
 Reference value :  1.33500e-04
 Reference value :  1.33500e-04
 Reference value :  1.33501e-04
 Reference value :  1.33501e-04
 Reference value :  1.33501e-04
 Reference value :  1.33502e-04
 Reference value :  1.33502e-04
 Reference value :  1.33503e-04
 Reference value :  1.33504e-04
 Reference value :  1.33504e-04
 Reference value :  1.33505e-04
 Reference value :  1.33506e-04
 Reference value :  1.33507e-04
 Reference value :  1.33507e-04
 Reference value :  1.33508e-04
 Reference value :  1.33509e-04
 Reference value :  1.33510e-04
 Reference value :  1.33511e-04
 Reference value :  1.33513e-04
 Reference value :  1.33516e-04
 Reference value :  1.33517e-04
 Reference value :  1.33519e-04
 Reference value :  1.33521e-04
 Reference value :  1.33522e-04
 Reference value :  1.33524e-04
 Reference value :  1.33525e-04
 Reference value :  1.33527e-04
 Reference value :  1.33529e-04
 Reference value :  1.33532e-04
 Reference value :  1.33538e-04
 Reference value :  1.33547e-04
 Reference value :  1.33556e-04
 Reference value :  1.33566e-04
 Reference value :  1.33577e-04
 Reference value :  1.33596e-04
 Reference value :  1.33630e-04
 Reference value :  1.33698e-04
 Reference value :  1.33750e-04
 Reference value :  1.33750e-04
 Reference value :  1.33750e-04
 Reference value :  1.33750e-04
 Reference value :  1.33750e-04
 Reference value :  1.33750e-04
 Reference value :  1.33750e-04
 Reference value :  1.33750e-04
 Reference value :  1.33750e-04
 Reference value :  1.33750e-04
 Reference value :  1.33750e-04
 Reference value :  1.33750e-04
 Reference value :  1.33750e-04
 Reference value :  1.33751e-04
 Reference value :  1.33751e-04
 Reference value :  1.33751e-04
 Reference value :  1.33752e-04
 Reference value :  1.33752e-04
 Reference value :  1.33753e-04
 Reference value :  1.33754e-04
 Reference value :  1.33755e-04
 Reference value :  1.33756e-04
 Reference value :  1.33756e-04
 Reference value :  1.33757e-04
 Reference value :  1.33759e-04
 Reference value :  1.33760e-04
 Reference value :  1.33762e-04
 Reference value :  1.33765e-04
 Reference value :  1.33770e-04
 Reference value :  1.33779e-04
 Reference value :  1.33793e-04
 Reference value :  1.33820e-04
 Reference value :  1.33866e-04
 Reference value :  1.33948e-04
 Reference value :  1.34000e-04
 Reference value :  1.34000e-04
 Reference value :  1.34000e-04
 Reference value :  1.34000e-04
 Reference value :  1.34000e-04
 Reference value :  1.34000e-04
 Reference value :  1.34000e-04
 Reference value :  1.34000e-04
 Reference value :  1.34000e-04
 Reference value :  1.34000e-04
 Reference value :  1.34000e-04
 Reference value :  1.34001e-04
 Reference value :  1.34001e-04
 Reference value :  1.34001e-04
 Reference value :  1.34002e-04
 Reference value :  1.34002e-04
 Reference value :  1.34003e-04
 Reference value :  1.34004e-04
 Reference value :  1.34004e-04
 Reference value :  1.34005e-04
 Reference value :  1.34006e-04
 Reference value :  1.34007e-04
 Reference value :  1.34008e-04
 Reference value :  1.34009e-04
 Reference value :  1.34010e-04
 Reference value :  1.34011e-04
 Reference value :  1.34013e-04
 Reference value :  1.34014e-04
 Reference value :  1.34015e-04
 Reference value :  1.34016e-04
 Reference value :  1.34019e-04
 Reference value :  1.34024e-04
 Reference value :  1.34032e-04
 Reference value :  1.34048e-04
 Reference value :  1.34078e-04
 Reference value :  1.34138e-04
 Reference value :  1.34250e-04
 Reference value :  1.34250e-04
 Reference value :  1.34250e-04
 Reference value :  1.34250e-04
 Reference value :  1.34250e-04
 Reference value :  1.34250e-04
 Reference value :  1.34250e-04
 Reference value :  1.34250e-04
 Reference value :  1.34250e-04
 Reference value :  1.34250e-04
 Reference value :  1.34250e-04
 Reference value :  1.34250e-04
 Reference value :  1.34250e-04
 Reference value :  1.34251e-04
 Reference value :  1.34251e-04
 Reference value :  1.34251e-04
 Reference value :  1.34252e-04
 Reference value :  1.34252e-04
 Reference value :  1.34253e-04
 Reference value :  1.34254e-04
 Reference value :  1.34255e-04
 Reference value :  1.34256e-04
 Reference value :  1.34256e-04
 Reference value :  1.34257e-04
 Reference value :  1.34258e-04
 Reference value :  1.34259e-04
 Reference value :  1.34261e-04
 Reference value :  1.34263e-04
 Reference value :  1.34267e-04
 Reference value :  1.34273e-04
 Reference value :  1.34286e-04
 Reference value :  1.34308e-04
 Reference value :  1.34352e-04
 Reference value :  1.34439e-04
 Reference value :  1.34500e-04
 Reference value :  1.34500e-04
 Reference value :  1.34500e-04
 Reference value :  1.34500e-04
 Reference value :  1.34500e-04
 Reference value :  1.34500e-04
 Reference value :  1.34500e-04
 Reference value :  1.34500e-04
 Reference value :  1.34500e-04
 Reference value :  1.34500e-04
 Reference value :  1.34500e-04
 Reference value :  1.34501e-04
 Reference value :  1.34501e-04
 Reference value :  1.34501e-04
 Reference value :  1.34502e-04
 Reference value :  1.34502e-04
 Reference value :  1.34503e-04
 Reference value :  1.34504e-04
 Reference value :  1.34504e-04
 Reference value :  1.34505e-04
 Reference value :  1.34506e-04
 Reference value :  1.34507e-04
 Reference value :  1.34507e-04
 Reference value :  1.34508e-04
 Reference value :  1.34509e-04
 Reference value :  1.34510e-04
 Reference value :  1.34511e-04
 Reference value :  1.34514e-04
 Reference value :  1.34516e-04
 Reference value :  1.34518e-04
 Reference value :  1.34520e-04
 Reference value :  1.34521e-04
 Reference value :  1.34523e-04
 Reference value :  1.34524e-04
 Reference value :  1.34526e-04
 Reference value :  1.34528e-04
 Reference value :  1.34531e-04
 Reference value :  1.34535e-04
 Reference value :  1.34539e-04
 Reference value :  1.34544e-04
 Reference value :  1.34550e-04
 Reference value :  1.34562e-04
 Reference value :  1.34578e-04
 Reference value :  1.34610e-04
 Reference value :  1.34669e-04
 Reference value :  1.34750e-04
 Reference value :  1.34750e-04
 Reference value :  1.34750e-04
 Reference value :  1.34750e-04
 Reference value :  1.34750e-04
 Reference value :  1.34750e-04
 Reference value :  1.34750e-04
 Reference value :  1.34750e-04
 Reference value :  1.34750e-04
 Reference value :  1.34750e-04
 Reference value :  1.34750e-04
 Reference value :  1.34750e-04
 Reference value :  1.34750e-04
 Reference value :  1.34751e-04
 Reference value :  1.34751e-04
 Reference value :  1.34751e-04
 Reference value :  1.34752e-04
 Reference value :  1.34752e-04
 Reference value :  1.34753e-04
 Reference value :  1.34754e-04
 Reference value :  1.34755e-04
 Reference value :  1.34755e-04
 Reference value :  1.34756e-04
 Reference value :  1.34757e-04
 Reference value :  1.34758e-04
 Reference value :  1.34760e-04
 Reference value :  1.34762e-04
 Reference value :  1.34765e-04
 Reference value :  1.34769e-04
 Reference value :  1.34776e-04
 Reference value :  1.34790e-04
 Reference value :  1.34814e-04
 Reference value :  1.34857e-04
 Reference value :  1.34944e-04
 Reference value :  1.35000e-04
 Reference value :  1.35000e-04
 Reference value :  1.35000e-04
 Reference value :  1.35000e-04
 Reference value :  1.35000e-04
 Reference value :  1.35000e-04
 Reference value :  1.35000e-04
 Reference value :  1.35000e-04
 Reference value :  1.35000e-04
 Reference value :  1.35000e-04
 Reference value :  1.35000e-04
 Reference value :  1.35001e-04
 Reference value :  1.35001e-04
 Reference value :  1.35001e-04
 Reference value :  1.35002e-04
 Reference value :  1.35002e-04
 Reference value :  1.35003e-04
 Reference value :  1.35004e-04
 Reference value :  1.35004e-04
 Reference value :  1.35005e-04
 Reference value :  1.35006e-04
 Reference value :  1.35007e-04
 Reference value :  1.35008e-04
 Reference value :  1.35009e-04
 Reference value :  1.35010e-04
 Reference value :  1.35012e-04
 Reference value :  1.35013e-04
 Reference value :  1.35014e-04
 Reference value :  1.35015e-04
 Reference value :  1.35016e-04
 Reference value :  1.35019e-04
 Reference value :  1.35024e-04
 Reference value :  1.35033e-04
 Reference value :  1.35051e-04
 Reference value :  1.35086e-04
 Reference value :  1.35156e-04
 Reference value :  1.35250e-04
 Reference value :  1.35250e-04
 Reference value :  1.35250e-04
 Reference value :  1.35250e-04
 Reference value :  1.35250e-04
 Reference value :  1.35250e-04
 Reference value :  1.35250e-04
 Reference value :  1.35250e-04
 Reference value :  1.35250e-04
 Reference value :  1.35250e-04
 Reference value :  1.35250e-04
 Reference value :  1.35250e-04
 Reference value :  1.35250e-04
 Reference value :  1.35251e-04
 Reference value :  1.35251e-04
 Reference value :  1.35251e-04
 Reference value :  1.35252e-04
 Reference value :  1.35252e-04
 Reference value :  1.35253e-04
 Reference value :  1.35254e-04
 Reference value :  1.35255e-04
 Reference value :  1.35255e-04
 Reference value :  1.35256e-04
 Reference value :  1.35257e-04
 Reference value :  1.35258e-04
 Reference value :  1.35259e-04
 Reference value :  1.35261e-04
 Reference value :  1.35263e-04
 Reference value :  1.35266e-04
 Reference value :  1.35272e-04
 Reference value :  1.35284e-04
 Reference value :  1.35305e-04
 Reference value :  1.35345e-04
 Reference value :  1.35425e-04
 Reference value :  1.35500e-04
 Reference value :  1.35500e-04
 Reference value :  1.35500e-04
 Reference value :  1.35500e-04
 Reference value :  1.35500e-04
 Reference value :  1.35500e-04
 Reference value :  1.35500e-04
 Reference value :  1.35500e-04
 Reference value :  1.35500e-04
 Reference value :  1.35500e-04
 Reference value :  1.35500e-04
 Reference value :  1.35501e-04
 Reference value :  1.35501e-04
 Reference value :  1.35501e-04
 Reference value :  1.35502e-04
 Reference value :  1.35502e-04
 Reference value :  1.35503e-04
 Reference value :  1.35504e-04
 Reference value :  1.35504e-04
 Reference value :  1.35505e-04
 Reference value :  1.35506e-04
 Reference value :  1.35507e-04
 Reference value :  1.35507e-04
 Reference value :  1.35508e-04
 Reference value :  1.35509e-04
 Reference value :  1.35510e-04
 Reference value :  1.35512e-04
 Reference value :  1.35514e-04
 Reference value :  1.35517e-04
 Reference value :  1.35518e-04
 Reference value :  1.35521e-04
 Reference value :  1.35523e-04
 Reference value :  1.35526e-04
 Reference value :  1.35530e-04
 Reference value :  1.35536e-04
 Reference value :  1.35545e-04
 Reference value :  1.35559e-04
 Reference value :  1.35582e-04
 Reference value :  1.35621e-04
 Reference value :  1.35699e-04
 Reference value :  1.35750e-04
 Reference value :  1.35750e-04
 Reference value :  1.35750e-04
 Reference value :  1.35750e-04
 Reference value :  1.35750e-04
 Reference value :  1.35750e-04
 Reference value :  1.35750e-04
 Reference value :  1.35750e-04
 Reference value :  1.35750e-04
 Reference value :  1.35750e-04
 Reference value :  1.35750e-04
 Reference value :  1.35750e-04
 Reference value :  1.35750e-04
 Reference value :  1.35751e-04
 Reference value :  1.35751e-04
 Reference value :  1.35751e-04
 Reference value :  1.35752e-04
 Reference value :  1.35752e-04
 Reference value :  1.35753e-04
 Reference value :  1.35754e-04
 Reference value :  1.35755e-04
 Reference value :  1.35756e-04
 Reference value :  1.35757e-04
 Reference value :  1.35759e-04
 Reference value :  1.35761e-04
 Reference value :  1.35763e-04
 Reference value :  1.35766e-04
 Reference value :  1.35771e-04
 Reference value :  1.35780e-04
 Reference value :  1.35798e-04
 Reference value :  1.35834e-04
 Reference value :  1.35907e-04
 Reference value :  1.36000e-04
No. of Data Rows : 21207
ngspice-44 done
