
Note: Compatibility modes selected: hs a


Circuit: ** sch_path: /home/ece/cace/sar-adc-using-sky130-pdk/runs/run_2025-09-11_01-42-21/parameters/dnl/run_0/sar_output_dnl.sch

option SCALE: Scale is set to 1e-06 for instance and model parameters
option SCALE: Scale is set to 1e-06 for instance and model parameters
option SCALE: Scale is set to 1e-06 for instance and model parameters
option SCALE: Scale is set to 1e-06 for instance and model parameters
Doing analysis at TEMP = 27.000000 and TNOM = 27.000000

Using KLU as Direct Linear Solver
Operating point simulation skipped by 'uic',
  now using transient initial conditions.
 Reference value :  1.00000e-12
 Reference value :  1.02772e-12
 Reference value :  1.08316e-12
 Reference value :  1.19404e-12
 Reference value :  1.33846e-12
 Reference value :  1.62729e-12
 Reference value :  2.20497e-12
 Reference value :  3.05964e-12
 Reference value :  3.96273e-12
 Reference value :  5.17601e-12
 Reference value :  6.89252e-12
 Reference value :  1.02360e-11
 Reference value :  1.40718e-11
 Reference value :  2.08846e-11
 Reference value :  2.75837e-11
 Reference value :  3.66532e-11
 Reference value :  4.78918e-11
 Reference value :  6.59014e-11
 Reference value :  8.67490e-11
 Reference value :  1.00000e-10
 Reference value :  1.01100e-10
 Reference value :  1.03301e-10
 Reference value :  1.07702e-10
 Reference value :  1.16505e-10
 Reference value :  1.34111e-10
 Reference value :  1.69322e-10
 Reference value :  2.39745e-10
 Reference value :  3.80590e-10
 Reference value :  5.38616e-10
 Reference value :  7.86238e-10
 Reference value :  1.11896e-09
 Reference value :  1.51641e-09
 Reference value :  2.18613e-09
 Reference value :  2.89512e-09
 Reference value :  3.75529e-09
 Reference value :  4.53955e-09
 Reference value :  5.37796e-09
 Reference value :  6.65746e-09
 Reference value :  7.88605e-09
 Reference value :  9.04088e-09
 Reference value :  9.84441e-09
 Reference value :  1.07227e-08
 Reference value :  1.17648e-08
 Reference value :  1.27484e-08
 Reference value :  1.47155e-08
 Reference value :  1.72251e-08
 Reference value :  2.17234e-08
 Reference value :  2.58092e-08
 Reference value :  2.92843e-08
 Reference value :  3.31672e-08
 Reference value :  3.63488e-08
 Reference value :  3.96338e-08
 Reference value :  4.36236e-08
 Reference value :  4.95386e-08
 Reference value :  5.82110e-08
 Reference value :  7.44956e-08
 Reference value :  9.79930e-08
 Reference value :  1.44988e-07
 Reference value :  2.09511e-07
 Reference value :  2.50100e-07
 Reference value :  2.50110e-07
 Reference value :  2.50130e-07
 Reference value :  2.50170e-07
 Reference value :  2.50200e-07
 Reference value :  2.50201e-07
 Reference value :  2.50202e-07
 Reference value :  2.50204e-07
 Reference value :  2.50208e-07
 Reference value :  2.50216e-07
 Reference value :  2.50233e-07
 Reference value :  2.50266e-07
 Reference value :  2.50332e-07
 Reference value :  2.50408e-07
 Reference value :  2.50559e-07
 Reference value :  2.50706e-07
 Reference value :  2.51000e-07
 Reference value :  2.51329e-07
 Reference value :  2.51814e-07
 Reference value :  2.52369e-07
 Reference value :  2.52973e-07
 Reference value :  2.53861e-07
 Reference value :  2.54730e-07
 Reference value :  2.55539e-07
 Reference value :  2.56397e-07
 Reference value :  2.57284e-07
 Reference value :  2.58159e-07
 Reference value :  2.59692e-07
 Reference value :  2.61760e-07
 Reference value :  2.63982e-07
 Reference value :  2.67676e-07
 Reference value :  2.73180e-07
 Reference value :  2.84189e-07
 Reference value :  3.06208e-07
 Reference value :  3.46163e-07
 Reference value :  4.26075e-07
 Reference value :  5.00000e-07
 Reference value :  5.00010e-07
 Reference value :  5.00030e-07
 Reference value :  5.00070e-07
 Reference value :  5.00100e-07
 Reference value :  5.00104e-07
 Reference value :  5.00113e-07
 Reference value :  5.00130e-07
 Reference value :  5.00163e-07
 Reference value :  5.00231e-07
 Reference value :  5.00366e-07
 Reference value :  5.00553e-07
 Reference value :  5.00927e-07
 Reference value :  5.01510e-07
 Reference value :  5.02040e-07
 Reference value :  5.02609e-07
 Reference value :  5.03288e-07
 Reference value :  5.04079e-07
 Reference value :  5.04829e-07
 Reference value :  5.05642e-07
 Reference value :  5.06668e-07
 Reference value :  5.07755e-07
 Reference value :  5.09486e-07
 Reference value :  5.12227e-07
 Reference value :  5.14062e-07
 Reference value :  5.16137e-07
 Reference value :  5.18338e-07
 Reference value :  5.20723e-07
 Reference value :  5.23450e-07
 Reference value :  5.27988e-07
 Reference value :  5.34633e-07
 Reference value :  5.45822e-07
 Reference value :  5.65435e-07
 Reference value :  5.98749e-07
 Reference value :  6.59309e-07
 Reference value :  7.50100e-07
 Reference value :  7.50110e-07
 Reference value :  7.50130e-07
 Reference value :  7.50170e-07
 Reference value :  7.50200e-07
 Reference value :  7.50201e-07
 Reference value :  7.50202e-07
 Reference value :  7.50205e-07
 Reference value :  7.50211e-07
 Reference value :  7.50223e-07
 Reference value :  7.50247e-07
 Reference value :  7.50295e-07
 Reference value :  7.50390e-07
 Reference value :  7.50580e-07
 Reference value :  7.50954e-07
 Reference value :  7.51429e-07
 Reference value :  7.51992e-07
 Reference value :  7.52594e-07
 Reference value :  7.53250e-07
 Reference value :  7.54105e-07
 Reference value :  7.54725e-07
 Reference value :  7.55452e-07
 Reference value :  7.56121e-07
 Reference value :  7.56853e-07
 Reference value :  7.57765e-07
 Reference value :  7.58760e-07
 Reference value :  7.60750e-07
 Reference value :  7.62908e-07
 Reference value :  7.66537e-07
 Reference value :  7.71134e-07
 Reference value :  7.80328e-07
 Reference value :  7.98716e-07
 Reference value :  8.35491e-07
 Reference value :  9.09042e-07
 Reference value :  1.00000e-06
 Reference value :  1.00001e-06
 Reference value :  1.00003e-06
 Reference value :  1.00007e-06
 Reference value :  1.00010e-06
 Reference value :  1.00010e-06
 Reference value :  1.00011e-06
 Reference value :  1.00013e-06
 Reference value :  1.00016e-06
 Reference value :  1.00023e-06
 Reference value :  1.00036e-06
 Reference value :  1.00055e-06
 Reference value :  1.00092e-06
 Reference value :  1.00145e-06
 Reference value :  1.00198e-06
 Reference value :  1.00255e-06
 Reference value :  1.00322e-06
 Reference value :  1.00397e-06
 Reference value :  1.00472e-06
 Reference value :  1.00541e-06
 Reference value :  1.00613e-06
 Reference value :  1.00694e-06
 Reference value :  1.00770e-06
 Reference value :  1.00853e-06
 Reference value :  1.00971e-06
 Reference value :  1.01103e-06
 Reference value :  1.01329e-06
 Reference value :  1.01571e-06
 Reference value :  1.01765e-06
 Reference value :  1.01939e-06
 Reference value :  1.02066e-06
 Reference value :  1.02205e-06
 Reference value :  1.02362e-06
 Reference value :  1.02517e-06
 Reference value :  1.02703e-06
 Reference value :  1.02974e-06
 Reference value :  1.03265e-06
 Reference value :  1.03847e-06
 Reference value :  1.04760e-06
 Reference value :  1.06256e-06
 Reference value :  1.08252e-06
 Reference value :  1.11507e-06
 Reference value :  1.16795e-06
 Reference value :  1.23268e-06
 Reference value :  1.25010e-06
 Reference value :  1.25011e-06
 Reference value :  1.25013e-06
 Reference value :  1.25017e-06
 Reference value :  1.25020e-06
 Reference value :  1.25020e-06
 Reference value :  1.25020e-06
 Reference value :  1.25021e-06
 Reference value :  1.25021e-06
 Reference value :  1.25022e-06
 Reference value :  1.25025e-06
 Reference value :  1.25029e-06
 Reference value :  1.25039e-06
 Reference value :  1.25057e-06
 Reference value :  1.25090e-06
 Reference value :  1.25140e-06
 Reference value :  1.25202e-06
 Reference value :  1.25261e-06
 Reference value :  1.25328e-06
 Reference value :  1.25410e-06
 Reference value :  1.25471e-06
 Reference value :  1.25542e-06
 Reference value :  1.25626e-06
 Reference value :  1.25711e-06
 Reference value :  1.25821e-06
 Reference value :  1.25999e-06
 Reference value :  1.26194e-06
 Reference value :  1.26489e-06
 Reference value :  1.26876e-06
 Reference value :  1.27651e-06
 Reference value :  1.29201e-06
 Reference value :  1.32299e-06
 Reference value :  1.38497e-06
 Reference value :  1.50000e-06
 Reference value :  1.50001e-06
 Reference value :  1.50003e-06
 Reference value :  1.50007e-06
 Reference value :  1.50010e-06
 Reference value :  1.50010e-06
 Reference value :  1.50011e-06
 Reference value :  1.50013e-06
 Reference value :  1.50016e-06
 Reference value :  1.50023e-06
 Reference value :  1.50037e-06
 Reference value :  1.50054e-06
 Reference value :  1.50090e-06
 Reference value :  1.50139e-06
 Reference value :  1.50191e-06
 Reference value :  1.50245e-06
 Reference value :  1.50312e-06
 Reference value :  1.50378e-06
 Reference value :  1.50453e-06
 Reference value :  1.50540e-06
 Reference value :  1.50622e-06
 Reference value :  1.50751e-06
 Reference value :  1.50884e-06
 Reference value :  1.51012e-06
 Reference value :  1.51142e-06
 Reference value :  1.51306e-06
 Reference value :  1.51458e-06
 Reference value :  1.51633e-06
 Reference value :  1.51816e-06
 Reference value :  1.52181e-06
 Reference value :  1.52877e-06
 Reference value :  1.54021e-06
 Reference value :  1.56308e-06
 Reference value :  1.60883e-06
 Reference value :  1.70032e-06
 Reference value :  1.75010e-06
 Reference value :  1.75011e-06
 Reference value :  1.75013e-06
 Reference value :  1.75017e-06
 Reference value :  1.75020e-06
 Reference value :  1.75020e-06
 Reference value :  1.75020e-06
 Reference value :  1.75021e-06
 Reference value :  1.75021e-06
 Reference value :  1.75022e-06
 Reference value :  1.75025e-06
 Reference value :  1.75029e-06
 Reference value :  1.75039e-06
 Reference value :  1.75058e-06
 Reference value :  1.75091e-06
 Reference value :  1.75141e-06
 Reference value :  1.75204e-06
 Reference value :  1.75262e-06
 Reference value :  1.75330e-06
 Reference value :  1.75414e-06
 Reference value :  1.75475e-06
 Reference value :  1.75545e-06
 Reference value :  1.75613e-06
 Reference value :  1.75686e-06
 Reference value :  1.75781e-06
 Reference value :  1.75887e-06
 Reference value :  1.76098e-06
 Reference value :  1.76315e-06
 Reference value :  1.76695e-06
 Reference value :  1.77180e-06
 Reference value :  1.78150e-06
 Reference value :  1.80090e-06
 Reference value :  1.83971e-06
 Reference value :  1.91732e-06
 Reference value :  2.00000e-06
 Reference value :  2.00001e-06
 Reference value :  2.00003e-06
 Reference value :  2.00007e-06
 Reference value :  2.00010e-06
 Reference value :  2.00010e-06
 Reference value :  2.00011e-06
 Reference value :  2.00013e-06
 Reference value :  2.00016e-06
 Reference value :  2.00023e-06
 Reference value :  2.00036e-06
 Reference value :  2.00054e-06
 Reference value :  2.00089e-06
 Reference value :  2.00139e-06
 Reference value :  2.00190e-06
 Reference value :  2.00244e-06
 Reference value :  2.00310e-06
 Reference value :  2.00375e-06
 Reference value :  2.00453e-06
 Reference value :  2.00519e-06
 Reference value :  2.00590e-06
 Reference value :  2.00674e-06
 Reference value :  2.00748e-06
 Reference value :  2.00826e-06
 Reference value :  2.00933e-06
 Reference value :  2.01037e-06
 Reference value :  2.01227e-06
 Reference value :  2.01467e-06
 Reference value :  2.01664e-06
 Reference value :  2.01870e-06
 Reference value :  2.02020e-06
 Reference value :  2.02160e-06
 Reference value :  2.02284e-06
 Reference value :  2.02423e-06
 Reference value :  2.02576e-06
 Reference value :  2.02804e-06
 Reference value :  2.03019e-06
 Reference value :  2.03426e-06
 Reference value :  2.04002e-06
 Reference value :  2.04577e-06
 Reference value :  2.05185e-06
 Reference value :  2.05749e-06
 Reference value :  2.06402e-06
 Reference value :  2.06838e-06
 Reference value :  2.07329e-06
 Reference value :  2.08018e-06
 Reference value :  2.08718e-06
 Reference value :  2.09502e-06
 Reference value :  2.10315e-06
 Reference value :  2.11110e-06
 Reference value :  2.12701e-06
 Reference value :  2.14556e-06
 Reference value :  2.17645e-06
 Reference value :  2.22960e-06
 Reference value :  2.25010e-06
 Reference value :  2.25011e-06
 Reference value :  2.25013e-06
 Reference value :  2.25017e-06
 Reference value :  2.25020e-06
 Reference value :  2.25020e-06
 Reference value :  2.25020e-06
 Reference value :  2.25021e-06
 Reference value :  2.25021e-06
 Reference value :  2.25022e-06
 Reference value :  2.25025e-06
 Reference value :  2.25029e-06
 Reference value :  2.25039e-06
 Reference value :  2.25057e-06
 Reference value :  2.25090e-06
 Reference value :  2.25139e-06
 Reference value :  2.25202e-06
 Reference value :  2.25260e-06
 Reference value :  2.25328e-06
 Reference value :  2.25412e-06
 Reference value :  2.25472e-06
 Reference value :  2.25541e-06
 Reference value :  2.25623e-06
 Reference value :  2.25717e-06
 Reference value :  2.25818e-06
 Reference value :  2.26020e-06
 Reference value :  2.26208e-06
 Reference value :  2.26523e-06
 Reference value :  2.26905e-06
 Reference value :  2.27668e-06
 Reference value :  2.29195e-06
 Reference value :  2.32248e-06
 Reference value :  2.38354e-06
 Reference value :  2.48310e-06
 Reference value :  2.50000e-06
 Reference value :  2.50001e-06
 Reference value :  2.50003e-06
 Reference value :  2.50007e-06
 Reference value :  2.50010e-06
 Reference value :  2.50010e-06
 Reference value :  2.50011e-06
 Reference value :  2.50013e-06
 Reference value :  2.50016e-06
 Reference value :  2.50023e-06
 Reference value :  2.50036e-06
 Reference value :  2.50054e-06
 Reference value :  2.50089e-06
 Reference value :  2.50139e-06
 Reference value :  2.50190e-06
 Reference value :  2.50240e-06
 Reference value :  2.50303e-06
 Reference value :  2.50367e-06
 Reference value :  2.50454e-06
 Reference value :  2.50535e-06
 Reference value :  2.50628e-06
 Reference value :  2.50760e-06
 Reference value :  2.50904e-06
 Reference value :  2.51044e-06
 Reference value :  2.51186e-06
 Reference value :  2.51315e-06
 Reference value :  2.51457e-06
 Reference value :  2.51596e-06
 Reference value :  2.51760e-06
 Reference value :  2.52088e-06
 Reference value :  2.52589e-06
 Reference value :  2.53590e-06
 Reference value :  2.55594e-06
 Reference value :  2.59600e-06
 Reference value :  2.67614e-06
 Reference value :  2.75010e-06
 Reference value :  2.75011e-06
 Reference value :  2.75013e-06
 Reference value :  2.75017e-06
 Reference value :  2.75020e-06
 Reference value :  2.75020e-06
 Reference value :  2.75020e-06
 Reference value :  2.75021e-06
 Reference value :  2.75021e-06
 Reference value :  2.75022e-06
 Reference value :  2.75025e-06
 Reference value :  2.75029e-06
 Reference value :  2.75039e-06
 Reference value :  2.75058e-06
 Reference value :  2.75091e-06
 Reference value :  2.75140e-06
 Reference value :  2.75198e-06
 Reference value :  2.75258e-06
 Reference value :  2.75323e-06
 Reference value :  2.75407e-06
 Reference value :  2.75468e-06
 Reference value :  2.75540e-06
 Reference value :  2.75605e-06
 Reference value :  2.75677e-06
 Reference value :  2.75767e-06
 Reference value :  2.75866e-06
 Reference value :  2.75968e-06
 Reference value :  2.76118e-06
 Reference value :  2.76283e-06
 Reference value :  2.76511e-06
 Reference value :  2.76792e-06
 Reference value :  2.77213e-06
 Reference value :  2.78054e-06
 Reference value :  2.79634e-06
 Reference value :  2.82793e-06
 Reference value :  2.89110e-06
 Reference value :  3.00000e-06
 Reference value :  3.00001e-06
 Reference value :  3.00003e-06
 Reference value :  3.00007e-06
 Reference value :  3.00010e-06
 Reference value :  3.00010e-06
 Reference value :  3.00011e-06
 Reference value :  3.00013e-06
 Reference value :  3.00016e-06
 Reference value :  3.00023e-06
 Reference value :  3.00036e-06
 Reference value :  3.00054e-06
 Reference value :  3.00089e-06
 Reference value :  3.00139e-06
 Reference value :  3.00190e-06
 Reference value :  3.00243e-06
 Reference value :  3.00309e-06
 Reference value :  3.00375e-06
 Reference value :  3.00452e-06
 Reference value :  3.00515e-06
 Reference value :  3.00585e-06
 Reference value :  3.00654e-06
 Reference value :  3.00723e-06
 Reference value :  3.00797e-06
 Reference value :  3.00889e-06
 Reference value :  3.00988e-06
 Reference value :  3.01155e-06
 Reference value :  3.01316e-06
 Reference value :  3.01461e-06
 Reference value :  3.01613e-06
 Reference value :  3.01769e-06
 Reference value :  3.01890e-06
 Reference value :  3.02007e-06
 Reference value :  3.02152e-06
 Reference value :  3.02289e-06
 Reference value :  3.02421e-06
 Reference value :  3.02588e-06
 Reference value :  3.02810e-06
 Reference value :  3.03039e-06
 Reference value :  3.03449e-06
 Reference value :  3.04026e-06
 Reference value :  3.04960e-06
 Reference value :  3.06526e-06
 Reference value :  3.07980e-06
 Reference value :  3.09565e-06
 Reference value :  3.10670e-06
 Reference value :  3.11441e-06
 Reference value :  3.11987e-06
 Reference value :  3.12584e-06
 Reference value :  3.13561e-06
 Reference value :  3.14455e-06
 Reference value :  3.15853e-06
 Reference value :  3.17504e-06
 Reference value :  3.19678e-06
 Reference value :  3.22638e-06
 Reference value :  3.25010e-06
 Reference value :  3.25011e-06
 Reference value :  3.25013e-06
 Reference value :  3.25017e-06
 Reference value :  3.25020e-06
 Reference value :  3.25020e-06
 Reference value :  3.25020e-06
 Reference value :  3.25021e-06
 Reference value :  3.25021e-06
 Reference value :  3.25022e-06
 Reference value :  3.25025e-06
 Reference value :  3.25029e-06
 Reference value :  3.25039e-06
 Reference value :  3.25058e-06
 Reference value :  3.25091e-06
 Reference value :  3.25140e-06
 Reference value :  3.25198e-06
 Reference value :  3.25258e-06
 Reference value :  3.25323e-06
 Reference value :  3.25406e-06
 Reference value :  3.25469e-06
 Reference value :  3.25541e-06
 Reference value :  3.25619e-06
 Reference value :  3.25701e-06
 Reference value :  3.25814e-06
 Reference value :  3.25976e-06
 Reference value :  3.26175e-06
 Reference value :  3.26448e-06
 Reference value :  3.26839e-06
 Reference value :  3.27619e-06
 Reference value :  3.29181e-06
 Reference value :  3.32303e-06
 Reference value :  3.38548e-06
 Reference value :  3.50000e-06
 Reference value :  3.50001e-06
 Reference value :  3.50003e-06
 Reference value :  3.50007e-06
 Reference value :  3.50010e-06
 Reference value :  3.50010e-06
 Reference value :  3.50011e-06
 Reference value :  3.50013e-06
 Reference value :  3.50016e-06
 Reference value :  3.50023e-06
 Reference value :  3.50037e-06
 Reference value :  3.50054e-06
 Reference value :  3.50090e-06
 Reference value :  3.50139e-06
 Reference value :  3.50191e-06
 Reference value :  3.50245e-06
 Reference value :  3.50311e-06
 Reference value :  3.50378e-06
 Reference value :  3.50451e-06
 Reference value :  3.50537e-06
 Reference value :  3.50619e-06
 Reference value :  3.50732e-06
 Reference value :  3.50871e-06
 Reference value :  3.50989e-06
 Reference value :  3.51113e-06
 Reference value :  3.51249e-06
 Reference value :  3.51406e-06
 Reference value :  3.51570e-06
 Reference value :  3.51747e-06
 Reference value :  3.52100e-06
 Reference value :  3.52675e-06
 Reference value :  3.53790e-06
 Reference value :  3.56019e-06
 Reference value :  3.58941e-06
 Reference value :  3.62482e-06
 Reference value :  3.64762e-06
 Reference value :  3.67075e-06
 Reference value :  3.70263e-06
 Reference value :  3.75010e-06
 Reference value :  3.75011e-06
 Reference value :  3.75013e-06
 Reference value :  3.75017e-06
 Reference value :  3.75020e-06
 Reference value :  3.75020e-06
 Reference value :  3.75020e-06
 Reference value :  3.75021e-06
 Reference value :  3.75021e-06
 Reference value :  3.75022e-06
 Reference value :  3.75025e-06
 Reference value :  3.75029e-06
 Reference value :  3.75039e-06
 Reference value :  3.75057e-06
 Reference value :  3.75090e-06
 Reference value :  3.75139e-06
 Reference value :  3.75202e-06
 Reference value :  3.75260e-06
 Reference value :  3.75328e-06
 Reference value :  3.75412e-06
 Reference value :  3.75473e-06
 Reference value :  3.75544e-06
 Reference value :  3.75612e-06
 Reference value :  3.75684e-06
 Reference value :  3.75778e-06
 Reference value :  3.75880e-06
 Reference value :  3.75991e-06
 Reference value :  3.76136e-06
 Reference value :  3.76325e-06
 Reference value :  3.76539e-06
 Reference value :  3.76864e-06
 Reference value :  3.77300e-06
 Reference value :  3.78172e-06
 Reference value :  3.79916e-06
 Reference value :  3.83404e-06
 Reference value :  3.90379e-06
 Reference value :  4.00000e-06
 Reference value :  4.00001e-06
 Reference value :  4.00003e-06
 Reference value :  4.00007e-06
 Reference value :  4.00010e-06
 Reference value :  4.00010e-06
 Reference value :  4.00011e-06
 Reference value :  4.00013e-06
 Reference value :  4.00016e-06
 Reference value :  4.00023e-06
 Reference value :  4.00036e-06
 Reference value :  4.00054e-06
 Reference value :  4.00089e-06
 Reference value :  4.00139e-06
 Reference value :  4.00190e-06
 Reference value :  4.00243e-06
 Reference value :  4.00309e-06
 Reference value :  4.00375e-06
 Reference value :  4.00452e-06
 Reference value :  4.00515e-06
 Reference value :  4.00585e-06
 Reference value :  4.00653e-06
 Reference value :  4.00720e-06
 Reference value :  4.00793e-06
 Reference value :  4.00888e-06
 Reference value :  4.00986e-06
 Reference value :  4.01133e-06
 Reference value :  4.01254e-06
 Reference value :  4.01383e-06
 Reference value :  4.01514e-06
 Reference value :  4.01658e-06
 Reference value :  4.01797e-06
 Reference value :  4.01900e-06
 Reference value :  4.02004e-06
 Reference value :  4.02126e-06
 Reference value :  4.02242e-06
 Reference value :  4.02363e-06
 Reference value :  4.02504e-06
 Reference value :  4.02605e-06
 Reference value :  4.02717e-06
 Reference value :  4.02844e-06
 Reference value :  4.02975e-06
 Reference value :  4.03140e-06
 Reference value :  4.03470e-06
 Reference value :  4.04016e-06
 Reference value :  4.04833e-06
 Reference value :  4.05795e-06
 Reference value :  4.07213e-06
 Reference value :  4.09696e-06
 Reference value :  4.11327e-06
 Reference value :  4.13206e-06
 Reference value :  4.15436e-06
 Reference value :  4.19149e-06
 Reference value :  4.24208e-06
 Reference value :  4.25010e-06
 Reference value :  4.25011e-06
 Reference value :  4.25013e-06
 Reference value :  4.25017e-06
 Reference value :  4.25020e-06
 Reference value :  4.25020e-06
 Reference value :  4.25020e-06
 Reference value :  4.25021e-06
 Reference value :  4.25021e-06
 Reference value :  4.25022e-06
 Reference value :  4.25025e-06
 Reference value :  4.25029e-06
 Reference value :  4.25039e-06
 Reference value :  4.25057e-06
 Reference value :  4.25090e-06
 Reference value :  4.25139e-06
 Reference value :  4.25202e-06
 Reference value :  4.25260e-06
 Reference value :  4.25328e-06
 Reference value :  4.25412e-06
 Reference value :  4.25473e-06
 Reference value :  4.25544e-06
 Reference value :  4.25636e-06
 Reference value :  4.25721e-06
 Reference value :  4.25833e-06
 Reference value :  4.26035e-06
 Reference value :  4.26227e-06
 Reference value :  4.26551e-06
 Reference value :  4.26944e-06
 Reference value :  4.27731e-06
 Reference value :  4.29305e-06
 Reference value :  4.32453e-06
 Reference value :  4.38748e-06
 Reference value :  4.50000e-06
 Reference value :  4.50001e-06
 Reference value :  4.50003e-06
 Reference value :  4.50007e-06
 Reference value :  4.50010e-06
 Reference value :  4.50010e-06
 Reference value :  4.50011e-06
 Reference value :  4.50013e-06
 Reference value :  4.50016e-06
 Reference value :  4.50023e-06
 Reference value :  4.50037e-06
 Reference value :  4.50054e-06
 Reference value :  4.50090e-06
 Reference value :  4.50139e-06
 Reference value :  4.50191e-06
 Reference value :  4.50245e-06
 Reference value :  4.50311e-06
 Reference value :  4.50377e-06
 Reference value :  4.50451e-06
 Reference value :  4.50536e-06
 Reference value :  4.50619e-06
 Reference value :  4.50732e-06
 Reference value :  4.50870e-06
 Reference value :  4.50995e-06
 Reference value :  4.51122e-06
 Reference value :  4.51239e-06
 Reference value :  4.51372e-06
 Reference value :  4.51505e-06
 Reference value :  4.51658e-06
 Reference value :  4.51964e-06
 Reference value :  4.52535e-06
 Reference value :  4.53644e-06
 Reference value :  4.55861e-06
 Reference value :  4.60295e-06
 Reference value :  4.69164e-06
 Reference value :  4.75010e-06
 Reference value :  4.75011e-06
 Reference value :  4.75013e-06
 Reference value :  4.75017e-06
 Reference value :  4.75020e-06
 Reference value :  4.75020e-06
 Reference value :  4.75020e-06
 Reference value :  4.75021e-06
 Reference value :  4.75021e-06
 Reference value :  4.75022e-06
 Reference value :  4.75025e-06
 Reference value :  4.75029e-06
 Reference value :  4.75039e-06
 Reference value :  4.75058e-06
 Reference value :  4.75091e-06
 Reference value :  4.75140e-06
 Reference value :  4.75204e-06
 Reference value :  4.75261e-06
 Reference value :  4.75330e-06
 Reference value :  4.75414e-06
 Reference value :  4.75475e-06
 Reference value :  4.75545e-06
 Reference value :  4.75614e-06
 Reference value :  4.75687e-06
 Reference value :  4.75782e-06
 Reference value :  4.75887e-06
 Reference value :  4.76097e-06
 Reference value :  4.76315e-06
 Reference value :  4.76694e-06
 Reference value :  4.77179e-06
 Reference value :  4.78149e-06
 Reference value :  4.80090e-06
 Reference value :  4.83971e-06
 Reference value :  4.91734e-06
 Reference value :  5.00000e-06
 Reference value :  5.00001e-06
 Reference value :  5.00003e-06
 Reference value :  5.00007e-06
 Reference value :  5.00010e-06
 Reference value :  5.00010e-06
 Reference value :  5.00011e-06
 Reference value :  5.00013e-06
 Reference value :  5.00016e-06
 Reference value :  5.00023e-06
 Reference value :  5.00036e-06
 Reference value :  5.00054e-06
 Reference value :  5.00089e-06
 Reference value :  5.00138e-06
 Reference value :  5.00189e-06
 Reference value :  5.00243e-06
 Reference value :  5.00309e-06
 Reference value :  5.00375e-06
 Reference value :  5.00452e-06
 Reference value :  5.00518e-06
 Reference value :  5.00589e-06
 Reference value :  5.00676e-06
 Reference value :  5.00755e-06
 Reference value :  5.00839e-06
 Reference value :  5.00956e-06
 Reference value :  5.01076e-06
 Reference value :  5.01294e-06
 Reference value :  5.01553e-06
 Reference value :  5.01747e-06
 Reference value :  5.01913e-06
 Reference value :  5.02073e-06
 Reference value :  5.02236e-06
 Reference value :  5.02401e-06
 Reference value :  5.02584e-06
 Reference value :  5.02779e-06
 Reference value :  5.03056e-06
 Reference value :  5.03424e-06
 Reference value :  5.04161e-06
 Reference value :  5.05055e-06
 Reference value :  5.05950e-06
 Reference value :  5.06727e-06
 Reference value :  5.07577e-06
 Reference value :  5.08566e-06
 Reference value :  5.09433e-06
 Reference value :  5.10062e-06
 Reference value :  5.10765e-06
 Reference value :  5.11665e-06
 Reference value :  5.12619e-06
 Reference value :  5.14525e-06
 Reference value :  5.17010e-06
 Reference value :  5.20597e-06
 Reference value :  5.25010e-06
 Reference value :  5.25011e-06
 Reference value :  5.25013e-06
 Reference value :  5.25017e-06
 Reference value :  5.25020e-06
 Reference value :  5.25020e-06
 Reference value :  5.25020e-06
 Reference value :  5.25021e-06
 Reference value :  5.25021e-06
 Reference value :  5.25022e-06
 Reference value :  5.25025e-06
 Reference value :  5.25029e-06
 Reference value :  5.25039e-06
 Reference value :  5.25058e-06
 Reference value :  5.25091e-06
 Reference value :  5.25140e-06
 Reference value :  5.25203e-06
 Reference value :  5.25261e-06
 Reference value :  5.25330e-06
 Reference value :  5.25414e-06
 Reference value :  5.25475e-06
 Reference value :  5.25546e-06
 Reference value :  5.25635e-06
 Reference value :  5.25726e-06
 Reference value :  5.25834e-06
 Reference value :  5.26026e-06
 Reference value :  5.26222e-06
 Reference value :  5.26543e-06
 Reference value :  5.26939e-06
 Reference value :  5.27732e-06
 Reference value :  5.29318e-06
 Reference value :  5.32489e-06
 Reference value :  5.38831e-06
 Reference value :  5.50000e-06
 Reference value :  5.50001e-06
 Reference value :  5.50003e-06
 Reference value :  5.50007e-06
 Reference value :  5.50010e-06
 Reference value :  5.50010e-06
 Reference value :  5.50011e-06
 Reference value :  5.50013e-06
 Reference value :  5.50016e-06
 Reference value :  5.50023e-06
 Reference value :  5.50037e-06
 Reference value :  5.50054e-06
 Reference value :  5.50090e-06
 Reference value :  5.50139e-06
 Reference value :  5.50191e-06
 Reference value :  5.50245e-06
 Reference value :  5.50311e-06
 Reference value :  5.50378e-06
 Reference value :  5.50453e-06
 Reference value :  5.50541e-06
 Reference value :  5.50623e-06
 Reference value :  5.50752e-06
 Reference value :  5.50886e-06
 Reference value :  5.51008e-06
 Reference value :  5.51154e-06
 Reference value :  5.51303e-06
 Reference value :  5.51438e-06
 Reference value :  5.51599e-06
 Reference value :  5.51777e-06
 Reference value :  5.52071e-06
 Reference value :  5.52514e-06
 Reference value :  5.53302e-06
 Reference value :  5.54760e-06
 Reference value :  5.57413e-06
 Reference value :  5.62539e-06
 Reference value :  5.72792e-06
 Reference value :  5.75010e-06
 Reference value :  5.75011e-06
 Reference value :  5.75013e-06
 Reference value :  5.75017e-06
 Reference value :  5.75020e-06
 Reference value :  5.75020e-06
 Reference value :  5.75020e-06
 Reference value :  5.75021e-06
 Reference value :  5.75021e-06
 Reference value :  5.75022e-06
 Reference value :  5.75025e-06
 Reference value :  5.75029e-06
 Reference value :  5.75039e-06
 Reference value :  5.75057e-06
 Reference value :  5.75090e-06
 Reference value :  5.75139e-06
 Reference value :  5.75202e-06
 Reference value :  5.75260e-06
 Reference value :  5.75327e-06
 Reference value :  5.75412e-06
 Reference value :  5.75472e-06
 Reference value :  5.75542e-06
 Reference value :  5.75610e-06
 Reference value :  5.75683e-06
 Reference value :  5.75776e-06
 Reference value :  5.75880e-06
 Reference value :  5.76087e-06
 Reference value :  5.76301e-06
 Reference value :  5.76673e-06
 Reference value :  5.77139e-06
 Reference value :  5.78070e-06
 Reference value :  5.79932e-06
 Reference value :  5.83657e-06
 Reference value :  5.91107e-06
 Reference value :  6.00000e-06
 Reference value :  6.00001e-06
 Reference value :  6.00003e-06
 Reference value :  6.00007e-06
 Reference value :  6.00010e-06
 Reference value :  6.00010e-06
 Reference value :  6.00011e-06
 Reference value :  6.00013e-06
 Reference value :  6.00016e-06
 Reference value :  6.00023e-06
 Reference value :  6.00036e-06
 Reference value :  6.00054e-06
 Reference value :  6.00089e-06
 Reference value :  6.00139e-06
 Reference value :  6.00190e-06
 Reference value :  6.00243e-06
 Reference value :  6.00310e-06
 Reference value :  6.00375e-06
 Reference value :  6.00453e-06
 Reference value :  6.00519e-06
 Reference value :  6.00590e-06
 Reference value :  6.00668e-06
 Reference value :  6.00744e-06
 Reference value :  6.00827e-06
 Reference value :  6.00942e-06
 Reference value :  6.01067e-06
 Reference value :  6.01277e-06
 Reference value :  6.01535e-06
 Reference value :  6.01727e-06
 Reference value :  6.01939e-06
 Reference value :  6.02101e-06
 Reference value :  6.02279e-06
 Reference value :  6.02456e-06
 Reference value :  6.02649e-06
 Reference value :  6.02863e-06
 Reference value :  6.03104e-06
 Reference value :  6.03466e-06
 Reference value :  6.03948e-06
 Reference value :  6.04700e-06
 Reference value :  6.05432e-06
 Reference value :  6.06320e-06
 Reference value :  6.07195e-06
 Reference value :  6.08485e-06
 Reference value :  6.09822e-06
 Reference value :  6.11068e-06
 Reference value :  6.12297e-06
 Reference value :  6.13527e-06
 Reference value :  6.15044e-06
 Reference value :  6.18079e-06
 Reference value :  6.24149e-06
 Reference value :  6.25010e-06
 Reference value :  6.25011e-06
 Reference value :  6.25013e-06
 Reference value :  6.25017e-06
 Reference value :  6.25020e-06
 Reference value :  6.25020e-06
 Reference value :  6.25020e-06
 Reference value :  6.25021e-06
 Reference value :  6.25021e-06
 Reference value :  6.25022e-06
 Reference value :  6.25025e-06
 Reference value :  6.25029e-06
 Reference value :  6.25039e-06
 Reference value :  6.25057e-06
 Reference value :  6.25090e-06
 Reference value :  6.25139e-06
 Reference value :  6.25202e-06
 Reference value :  6.25260e-06
 Reference value :  6.25328e-06
 Reference value :  6.25412e-06
 Reference value :  6.25473e-06
 Reference value :  6.25544e-06
 Reference value :  6.25637e-06
 Reference value :  6.25724e-06
 Reference value :  6.25836e-06
 Reference value :  6.26037e-06
 Reference value :  6.26232e-06
 Reference value :  6.26558e-06
 Reference value :  6.26958e-06
 Reference value :  6.27757e-06
 Reference value :  6.29355e-06
 Reference value :  6.32551e-06
 Reference value :  6.38943e-06
 Reference value :  6.50000e-06
 Reference value :  6.50001e-06
 Reference value :  6.50003e-06
 Reference value :  6.50007e-06
 Reference value :  6.50010e-06
 Reference value :  6.50010e-06
 Reference value :  6.50011e-06
 Reference value :  6.50013e-06
 Reference value :  6.50016e-06
 Reference value :  6.50023e-06
 Reference value :  6.50037e-06
 Reference value :  6.50054e-06
 Reference value :  6.50090e-06
 Reference value :  6.50139e-06
 Reference value :  6.50191e-06
 Reference value :  6.50245e-06
 Reference value :  6.50311e-06
 Reference value :  6.50378e-06
 Reference value :  6.50453e-06
 Reference value :  6.50538e-06
 Reference value :  6.50621e-06
 Reference value :  6.50735e-06
 Reference value :  6.50873e-06
 Reference value :  6.50992e-06
 Reference value :  6.51116e-06
 Reference value :  6.51229e-06
 Reference value :  6.51360e-06
 Reference value :  6.51491e-06
 Reference value :  6.51642e-06
 Reference value :  6.51943e-06
 Reference value :  6.52546e-06
 Reference value :  6.53618e-06
 Reference value :  6.55762e-06
 Reference value :  6.60051e-06
 Reference value :  6.68628e-06
 Reference value :  6.75010e-06
 Reference value :  6.75011e-06
 Reference value :  6.75013e-06
 Reference value :  6.75017e-06
 Reference value :  6.75020e-06
 Reference value :  6.75020e-06
 Reference value :  6.75020e-06
 Reference value :  6.75021e-06
 Reference value :  6.75021e-06
 Reference value :  6.75022e-06
 Reference value :  6.75025e-06
 Reference value :  6.75029e-06
 Reference value :  6.75039e-06
 Reference value :  6.75058e-06
 Reference value :  6.75091e-06
 Reference value :  6.75141e-06
 Reference value :  6.75204e-06
 Reference value :  6.75262e-06
 Reference value :  6.75330e-06
 Reference value :  6.75414e-06
 Reference value :  6.75475e-06
 Reference value :  6.75544e-06
 Reference value :  6.75613e-06
 Reference value :  6.75686e-06
 Reference value :  6.75781e-06
 Reference value :  6.75887e-06
 Reference value :  6.76098e-06
 Reference value :  6.76315e-06
 Reference value :  6.76695e-06
 Reference value :  6.77180e-06
 Reference value :  6.78149e-06
 Reference value :  6.80088e-06
 Reference value :  6.83965e-06
 Reference value :  6.91720e-06
 Reference value :  7.00000e-06
 Reference value :  7.00001e-06
 Reference value :  7.00003e-06
 Reference value :  7.00007e-06
 Reference value :  7.00010e-06
 Reference value :  7.00010e-06
 Reference value :  7.00011e-06
 Reference value :  7.00013e-06
 Reference value :  7.00016e-06
 Reference value :  7.00023e-06
 Reference value :  7.00036e-06
 Reference value :  7.00054e-06
 Reference value :  7.00089e-06
 Reference value :  7.00139e-06
 Reference value :  7.00190e-06
 Reference value :  7.00243e-06
 Reference value :  7.00310e-06
 Reference value :  7.00375e-06
 Reference value :  7.00453e-06
 Reference value :  7.00519e-06
 Reference value :  7.00590e-06
 Reference value :  7.00670e-06
 Reference value :  7.00746e-06
 Reference value :  7.00829e-06
 Reference value :  7.00952e-06
 Reference value :  7.01070e-06
 Reference value :  7.01288e-06
 Reference value :  7.01546e-06
 Reference value :  7.01740e-06
 Reference value :  7.01954e-06
 Reference value :  7.02110e-06
 Reference value :  7.02277e-06
 Reference value :  7.02452e-06
 Reference value :  7.02639e-06
 Reference value :  7.02844e-06
 Reference value :  7.03088e-06
 Reference value :  7.03447e-06
 Reference value :  7.03913e-06
 Reference value :  7.04368e-06
 Reference value :  7.05136e-06
 Reference value :  7.06300e-06
 Reference value :  7.08233e-06
 Reference value :  7.10816e-06
 Reference value :  7.13159e-06
 Reference value :  7.15756e-06
 Reference value :  7.20225e-06
 Reference value :  7.24880e-06
 Reference value :  7.25010e-06
 Reference value :  7.25011e-06
 Reference value :  7.25013e-06
 Reference value :  7.25017e-06
 Reference value :  7.25020e-06
 Reference value :  7.25020e-06
 Reference value :  7.25020e-06
 Reference value :  7.25021e-06
 Reference value :  7.25021e-06
 Reference value :  7.25022e-06
 Reference value :  7.25025e-06
 Reference value :  7.25029e-06
 Reference value :  7.25039e-06
 Reference value :  7.25058e-06
 Reference value :  7.25092e-06
 Reference value :  7.25141e-06
 Reference value :  7.25198e-06
 Reference value :  7.25258e-06
 Reference value :  7.25322e-06
 Reference value :  7.25406e-06
 Reference value :  7.25468e-06
 Reference value :  7.25539e-06
 Reference value :  7.25620e-06
 Reference value :  7.25704e-06
 Reference value :  7.25815e-06
 Reference value :  7.25986e-06
 Reference value :  7.26181e-06
 Reference value :  7.26464e-06
 Reference value :  7.26851e-06
 Reference value :  7.27625e-06
 Reference value :  7.29173e-06
 Reference value :  7.32151e-06
 Reference value :  7.38106e-06
 Reference value :  7.50000e-06
 Reference value :  7.50001e-06
 Reference value :  7.50003e-06
 Reference value :  7.50007e-06
 Reference value :  7.50010e-06
 Reference value :  7.50010e-06
 Reference value :  7.50011e-06
 Reference value :  7.50013e-06
 Reference value :  7.50016e-06
 Reference value :  7.50023e-06
 Reference value :  7.50037e-06
 Reference value :  7.50054e-06
 Reference value :  7.50090e-06
 Reference value :  7.50142e-06
 Reference value :  7.50194e-06
 Reference value :  7.50250e-06
 Reference value :  7.50316e-06
 Reference value :  7.50386e-06
 Reference value :  7.50459e-06
 Reference value :  7.50542e-06
 Reference value :  7.50628e-06
 Reference value :  7.50746e-06
 Reference value :  7.50889e-06
 Reference value :  7.51031e-06
 Reference value :  7.51159e-06
 Reference value :  7.51279e-06
 Reference value :  7.51415e-06
 Reference value :  7.51552e-06
 Reference value :  7.51710e-06
 Reference value :  7.52025e-06
 Reference value :  7.52502e-06
 Reference value :  7.53456e-06
 Reference value :  7.55364e-06
 Reference value :  7.59181e-06
 Reference value :  7.66813e-06
 Reference value :  7.75010e-06
 Reference value :  7.75011e-06
 Reference value :  7.75013e-06
 Reference value :  7.75017e-06
 Reference value :  7.75020e-06
 Reference value :  7.75020e-06
 Reference value :  7.75020e-06
 Reference value :  7.75021e-06
 Reference value :  7.75021e-06
 Reference value :  7.75022e-06
 Reference value :  7.75025e-06
 Reference value :  7.75029e-06
 Reference value :  7.75039e-06
 Reference value :  7.75058e-06
 Reference value :  7.75092e-06
 Reference value :  7.75141e-06
 Reference value :  7.75198e-06
 Reference value :  7.75258e-06
 Reference value :  7.75322e-06
 Reference value :  7.75406e-06
 Reference value :  7.75466e-06
 Reference value :  7.75537e-06
 Reference value :  7.75602e-06
 Reference value :  7.75674e-06
 Reference value :  7.75764e-06
 Reference value :  7.75865e-06
 Reference value :  7.76066e-06
 Reference value :  7.76277e-06
 Reference value :  7.76636e-06
 Reference value :  7.77080e-06
 Reference value :  7.77967e-06
 Reference value :  7.79742e-06
 Reference value :  7.83290e-06
 Reference value :  7.90388e-06
 Reference value :  8.00000e-06
 Reference value :  8.00001e-06
 Reference value :  8.00003e-06
 Reference value :  8.00007e-06
 Reference value :  8.00010e-06
 Reference value :  8.00010e-06
 Reference value :  8.00011e-06
 Reference value :  8.00013e-06
 Reference value :  8.00016e-06
 Reference value :  8.00023e-06
 Reference value :  8.00036e-06
 Reference value :  8.00054e-06
 Reference value :  8.00090e-06
 Reference value :  8.00141e-06
 Reference value :  8.00193e-06
 Reference value :  8.00248e-06
 Reference value :  8.00314e-06
 Reference value :  8.00383e-06
 Reference value :  8.00463e-06
 Reference value :  8.00531e-06
 Reference value :  8.00603e-06
 Reference value :  8.00682e-06
 Reference value :  8.00759e-06
 Reference value :  8.00843e-06
 Reference value :  8.00958e-06
 Reference value :  8.01089e-06
 Reference value :  8.01303e-06
 Reference value :  8.01567e-06
 Reference value :  8.01766e-06
 Reference value :  8.01986e-06
 Reference value :  8.02201e-06
 Reference value :  8.02449e-06
 Reference value :  8.02834e-06
 Reference value :  8.03343e-06
 Reference value :  8.04218e-06
 Reference value :  8.05631e-06
 Reference value :  8.08023e-06
 Reference value :  8.12249e-06
 Reference value :  8.19489e-06
 Reference value :  8.25010e-06
 Reference value :  8.25011e-06
 Reference value :  8.25013e-06
 Reference value :  8.25017e-06
 Reference value :  8.25020e-06
 Reference value :  8.25020e-06
 Reference value :  8.25020e-06
 Reference value :  8.25021e-06
 Reference value :  8.25021e-06
 Reference value :  8.25022e-06
 Reference value :  8.25025e-06
 Reference value :  8.25029e-06
 Reference value :  8.25039e-06
 Reference value :  8.25058e-06
 Reference value :  8.25096e-06
 Reference value :  8.25143e-06
 Reference value :  8.25198e-06
 Reference value :  8.25258e-06
 Reference value :  8.25322e-06
 Reference value :  8.25405e-06
 Reference value :  8.25495e-06
 Reference value :  8.25612e-06
 Reference value :  8.25752e-06
 Reference value :  8.25885e-06
 Reference value :  8.26110e-06
 Reference value :  8.26350e-06
 Reference value :  8.26727e-06
 Reference value :  8.27288e-06
 Reference value :  8.28409e-06
 Reference value :  8.30652e-06
 Reference value :  8.35137e-06
 Reference value :  8.44107e-06
 Reference value :  8.50000e-06
 Reference value :  8.50000e-06
 Reference value :  8.50000e-06
 Reference value :  8.50000e-06
 Reference value :  8.50000e-06
 Reference value :  8.50000e-06
 Reference value :  8.50000e-06
 Reference value :  8.50000e-06
 Reference value :  8.50000e-06
 Reference value :  8.50001e-06
 Reference value :  8.50001e-06
 Reference value :  8.50002e-06
 Reference value :  8.50004e-06
 Reference value :  8.50008e-06
 Reference value :  8.50010e-06
 Reference value :  8.50010e-06
 Reference value :  8.50011e-06
 Reference value :  8.50012e-06
 Reference value :  8.50014e-06
 Reference value :  8.50018e-06
 Reference value :  8.50026e-06
 Reference value :  8.50043e-06
 Reference value :  8.50072e-06
 Reference value :  8.50121e-06
 Reference value :  8.50181e-06
 Reference value :  8.50247e-06
 Reference value :  8.50311e-06
 Reference value :  8.50379e-06
 Reference value :  8.50448e-06
 Reference value :  8.50521e-06
 Reference value :  8.50619e-06
 Reference value :  8.50721e-06
 Reference value :  8.50925e-06
 Reference value :  8.51054e-06
 Reference value :  8.51189e-06
 Reference value :  8.51348e-06
 Reference value :  8.51523e-06
 Reference value :  8.51762e-06
 Reference value :  8.52125e-06
 Reference value :  8.52564e-06
 Reference value :  8.53063e-06
 Reference value :  8.53402e-06
 Reference value :  8.53695e-06
 Reference value :  8.53970e-06
 Reference value :  8.54205e-06
 Reference value :  8.54414e-06
 Reference value :  8.54606e-06
 Reference value :  8.54809e-06
 Reference value :  8.55016e-06
 Reference value :  8.55261e-06
 Reference value :  8.55523e-06
 Reference value :  8.55941e-06
 Reference value :  8.56394e-06
 Reference value :  8.57150e-06
 Reference value :  8.57915e-06
 Reference value :  8.59219e-06
 Reference value :  8.60537e-06
 Reference value :  8.62428e-06
 Reference value :  8.64906e-06
 Reference value :  8.68538e-06
 Reference value :  8.73856e-06
 Reference value :  8.75010e-06
 Reference value :  8.75011e-06
 Reference value :  8.75013e-06
 Reference value :  8.75017e-06
 Reference value :  8.75020e-06
 Reference value :  8.75020e-06
 Reference value :  8.75020e-06
 Reference value :  8.75021e-06
 Reference value :  8.75021e-06
 Reference value :  8.75022e-06
 Reference value :  8.75025e-06
 Reference value :  8.75029e-06
 Reference value :  8.75039e-06
 Reference value :  8.75058e-06
 Reference value :  8.75095e-06
 Reference value :  8.75142e-06
 Reference value :  8.75198e-06
 Reference value :  8.75258e-06
 Reference value :  8.75323e-06
 Reference value :  8.75405e-06
 Reference value :  8.75469e-06
 Reference value :  8.75543e-06
 Reference value :  8.75619e-06
 Reference value :  8.75698e-06
 Reference value :  8.75812e-06
 Reference value :  8.75960e-06
 Reference value :  8.76163e-06
 Reference value :  8.76426e-06
 Reference value :  8.76819e-06
 Reference value :  8.77574e-06
 Reference value :  8.79082e-06
 Reference value :  8.82054e-06
 Reference value :  8.87978e-06
 Reference value :  8.94898e-06
 Reference value :  9.00000e-06
 Reference value :  9.00001e-06
 Reference value :  9.00003e-06
 Reference value :  9.00007e-06
 Reference value :  9.00010e-06
 Reference value :  9.00010e-06
 Reference value :  9.00011e-06
 Reference value :  9.00013e-06
 Reference value :  9.00016e-06
 Reference value :  9.00023e-06
 Reference value :  9.00036e-06
 Reference value :  9.00055e-06
 Reference value :  9.00092e-06
 Reference value :  9.00145e-06
 Reference value :  9.00198e-06
 Reference value :  9.00255e-06
 Reference value :  9.00322e-06
 Reference value :  9.00397e-06
 Reference value :  9.00467e-06
 Reference value :  9.00550e-06
 Reference value :  9.00638e-06
 Reference value :  9.00744e-06
 Reference value :  9.00896e-06
 Reference value :  9.01080e-06
 Reference value :  9.01260e-06
 Reference value :  9.01459e-06
 Reference value :  9.01631e-06
 Reference value :  9.01810e-06
 Reference value :  9.02033e-06
 Reference value :  9.02275e-06
 Reference value :  9.02712e-06
 Reference value :  9.03374e-06
 Reference value :  9.04510e-06
 Reference value :  9.06740e-06
 Reference value :  9.11201e-06
 Reference value :  9.19765e-06
 Reference value :  9.25010e-06
 Reference value :  9.25011e-06
 Reference value :  9.25013e-06
 Reference value :  9.25017e-06
 Reference value :  9.25020e-06
 Reference value :  9.25020e-06
 Reference value :  9.25020e-06
 Reference value :  9.25021e-06
 Reference value :  9.25021e-06
 Reference value :  9.25022e-06
 Reference value :  9.25025e-06
 Reference value :  9.25029e-06
 Reference value :  9.25039e-06
 Reference value :  9.25057e-06
 Reference value :  9.25094e-06
 Reference value :  9.25142e-06
 Reference value :  9.25198e-06
 Reference value :  9.25259e-06
 Reference value :  9.25324e-06
 Reference value :  9.25411e-06
 Reference value :  9.25473e-06
 Reference value :  9.25545e-06
 Reference value :  9.25612e-06
 Reference value :  9.25686e-06
 Reference value :  9.25779e-06
 Reference value :  9.25884e-06
 Reference value :  9.26092e-06
 Reference value :  9.26308e-06
 Reference value :  9.26682e-06
 Reference value :  9.27155e-06
 Reference value :  9.28102e-06
 Reference value :  9.29994e-06
 Reference value :  9.33778e-06
 Reference value :  9.41348e-06
 Reference value :  9.50000e-06
 Reference value :  9.50001e-06
 Reference value :  9.50003e-06
 Reference value :  9.50007e-06
 Reference value :  9.50010e-06
 Reference value :  9.50010e-06
 Reference value :  9.50011e-06
 Reference value :  9.50013e-06
 Reference value :  9.50016e-06
 Reference value :  9.50023e-06
 Reference value :  9.50036e-06
 Reference value :  9.50055e-06
 Reference value :  9.50092e-06
 Reference value :  9.50145e-06
 Reference value :  9.50198e-06
 Reference value :  9.50255e-06
 Reference value :  9.50322e-06
 Reference value :  9.50397e-06
 Reference value :  9.50472e-06
 Reference value :  9.50541e-06
 Reference value :  9.50613e-06
 Reference value :  9.50694e-06
 Reference value :  9.50770e-06
 Reference value :  9.50853e-06
 Reference value :  9.50971e-06
 Reference value :  9.51103e-06
 Reference value :  9.51330e-06
 Reference value :  9.51572e-06
 Reference value :  9.51764e-06
 Reference value :  9.51945e-06
 Reference value :  9.52070e-06
 Reference value :  9.52209e-06
 Reference value :  9.52365e-06
 Reference value :  9.52524e-06
 Reference value :  9.52706e-06
 Reference value :  9.52976e-06
 Reference value :  9.53266e-06
 Reference value :  9.53845e-06
 Reference value :  9.54737e-06
 Reference value :  9.56302e-06
 Reference value :  9.58238e-06
 Reference value :  9.61565e-06
 Reference value :  9.66709e-06
 Reference value :  9.73276e-06
 Reference value :  9.75010e-06
 Reference value :  9.75011e-06
 Reference value :  9.75013e-06
 Reference value :  9.75017e-06
 Reference value :  9.75020e-06
 Reference value :  9.75020e-06
 Reference value :  9.75020e-06
 Reference value :  9.75021e-06
 Reference value :  9.75021e-06
 Reference value :  9.75022e-06
 Reference value :  9.75025e-06
 Reference value :  9.75029e-06
 Reference value :  9.75039e-06
 Reference value :  9.75057e-06
 Reference value :  9.75090e-06
 Reference value :  9.75140e-06
 Reference value :  9.75203e-06
 Reference value :  9.75261e-06
 Reference value :  9.75328e-06
 Reference value :  9.75411e-06
 Reference value :  9.75472e-06
 Reference value :  9.75543e-06
 Reference value :  9.75627e-06
 Reference value :  9.75712e-06
 Reference value :  9.75823e-06
 Reference value :  9.76003e-06
 Reference value :  9.76197e-06
 Reference value :  9.76497e-06
 Reference value :  9.76884e-06
 Reference value :  9.77659e-06
 Reference value :  9.79210e-06
 Reference value :  9.82311e-06
 Reference value :  9.88512e-06
 Reference value :  1.00000e-05
 Reference value :  1.00000e-05
 Reference value :  1.00000e-05
 Reference value :  1.00001e-05
 Reference value :  1.00001e-05
 Reference value :  1.00001e-05
 Reference value :  1.00001e-05
 Reference value :  1.00001e-05
 Reference value :  1.00002e-05
 Reference value :  1.00002e-05
 Reference value :  1.00004e-05
 Reference value :  1.00005e-05
 Reference value :  1.00009e-05
 Reference value :  1.00014e-05
 Reference value :  1.00019e-05
 Reference value :  1.00025e-05
 Reference value :  1.00031e-05
 Reference value :  1.00038e-05
 Reference value :  1.00045e-05
 Reference value :  1.00054e-05
 Reference value :  1.00062e-05
 Reference value :  1.00075e-05
 Reference value :  1.00088e-05
 Reference value :  1.00101e-05
 Reference value :  1.00114e-05
 Reference value :  1.00131e-05
 Reference value :  1.00146e-05
 Reference value :  1.00165e-05
 Reference value :  1.00183e-05
 Reference value :  1.00218e-05
 Reference value :  1.00289e-05
 Reference value :  1.00398e-05
 Reference value :  1.00615e-05
 Reference value :  1.01049e-05
 Reference value :  1.01918e-05
 Reference value :  1.02501e-05
 Reference value :  1.02501e-05
 Reference value :  1.02501e-05
 Reference value :  1.02502e-05
 Reference value :  1.02502e-05
 Reference value :  1.02502e-05
 Reference value :  1.02502e-05
 Reference value :  1.02502e-05
 Reference value :  1.02502e-05
 Reference value :  1.02502e-05
 Reference value :  1.02502e-05
 Reference value :  1.02503e-05
 Reference value :  1.02504e-05
 Reference value :  1.02506e-05
 Reference value :  1.02509e-05
 Reference value :  1.02514e-05
 Reference value :  1.02520e-05
 Reference value :  1.02526e-05
 Reference value :  1.02532e-05
 Reference value :  1.02541e-05
 Reference value :  1.02547e-05
 Reference value :  1.02554e-05
 Reference value :  1.02560e-05
 Reference value :  1.02568e-05
 Reference value :  1.02577e-05
 Reference value :  1.02587e-05
 Reference value :  1.02607e-05
 Reference value :  1.02628e-05
 Reference value :  1.02663e-05
 Reference value :  1.02707e-05
 Reference value :  1.02794e-05
 Reference value :  1.02969e-05
 Reference value :  1.03319e-05
 Reference value :  1.04019e-05
 Reference value :  1.05000e-05
 Reference value :  1.05000e-05
 Reference value :  1.05000e-05
 Reference value :  1.05001e-05
 Reference value :  1.05001e-05
 Reference value :  1.05001e-05
 Reference value :  1.05001e-05
 Reference value :  1.05001e-05
 Reference value :  1.05002e-05
 Reference value :  1.05002e-05
 Reference value :  1.05004e-05
 Reference value :  1.05005e-05
 Reference value :  1.05009e-05
 Reference value :  1.05014e-05
 Reference value :  1.05019e-05
 Reference value :  1.05024e-05
 Reference value :  1.05031e-05
 Reference value :  1.05038e-05
 Reference value :  1.05045e-05
 Reference value :  1.05052e-05
 Reference value :  1.05059e-05
 Reference value :  1.05067e-05
 Reference value :  1.05075e-05
 Reference value :  1.05083e-05
 Reference value :  1.05093e-05
 Reference value :  1.05104e-05
 Reference value :  1.05123e-05
 Reference value :  1.05147e-05
 Reference value :  1.05166e-05
 Reference value :  1.05187e-05
 Reference value :  1.05202e-05
 Reference value :  1.05216e-05
 Reference value :  1.05228e-05
 Reference value :  1.05242e-05
 Reference value :  1.05257e-05
 Reference value :  1.05280e-05
 Reference value :  1.05301e-05
 Reference value :  1.05342e-05
 Reference value :  1.05399e-05
 Reference value :  1.05458e-05
 Reference value :  1.05520e-05
 Reference value :  1.05578e-05
 Reference value :  1.05646e-05
 Reference value :  1.05692e-05
 Reference value :  1.05741e-05
 Reference value :  1.05808e-05
 Reference value :  1.05876e-05
 Reference value :  1.05954e-05
 Reference value :  1.06035e-05
 Reference value :  1.06113e-05
 Reference value :  1.06269e-05
 Reference value :  1.06447e-05
 Reference value :  1.06740e-05
 Reference value :  1.07209e-05
 Reference value :  1.07501e-05
 Reference value :  1.07501e-05
 Reference value :  1.07501e-05
 Reference value :  1.07502e-05
 Reference value :  1.07502e-05
 Reference value :  1.07502e-05
 Reference value :  1.07502e-05
 Reference value :  1.07502e-05
 Reference value :  1.07502e-05
 Reference value :  1.07502e-05
 Reference value :  1.07502e-05
 Reference value :  1.07503e-05
 Reference value :  1.07504e-05
 Reference value :  1.07506e-05
 Reference value :  1.07509e-05
 Reference value :  1.07514e-05
 Reference value :  1.07520e-05
 Reference value :  1.07526e-05
 Reference value :  1.07533e-05
 Reference value :  1.07541e-05
 Reference value :  1.07547e-05
 Reference value :  1.07554e-05
 Reference value :  1.07562e-05
 Reference value :  1.07572e-05
 Reference value :  1.07582e-05
 Reference value :  1.07602e-05
 Reference value :  1.07621e-05
 Reference value :  1.07652e-05
 Reference value :  1.07690e-05
 Reference value :  1.07767e-05
 Reference value :  1.07919e-05
 Reference value :  1.08224e-05
 Reference value :  1.08835e-05
 Reference value :  1.09827e-05
 Reference value :  1.10000e-05
 Reference value :  1.10000e-05
 Reference value :  1.10000e-05
 Reference value :  1.10001e-05
 Reference value :  1.10001e-05
 Reference value :  1.10001e-05
 Reference value :  1.10001e-05
 Reference value :  1.10001e-05
 Reference value :  1.10002e-05
 Reference value :  1.10002e-05
 Reference value :  1.10004e-05
 Reference value :  1.10005e-05
 Reference value :  1.10009e-05
 Reference value :  1.10014e-05
 Reference value :  1.10019e-05
 Reference value :  1.10024e-05
 Reference value :  1.10030e-05
 Reference value :  1.10037e-05
 Reference value :  1.10045e-05
 Reference value :  1.10053e-05
 Reference value :  1.10063e-05
 Reference value :  1.10076e-05
 Reference value :  1.10090e-05
 Reference value :  1.10104e-05
 Reference value :  1.10119e-05
 Reference value :  1.10132e-05
 Reference value :  1.10146e-05
 Reference value :  1.10160e-05
 Reference value :  1.10176e-05
 Reference value :  1.10209e-05
 Reference value :  1.10258e-05
 Reference value :  1.10357e-05
 Reference value :  1.10555e-05
 Reference value :  1.10951e-05
 Reference value :  1.11742e-05
 Reference value :  1.12501e-05
 Reference value :  1.12501e-05
 Reference value :  1.12501e-05
 Reference value :  1.12502e-05
 Reference value :  1.12502e-05
 Reference value :  1.12502e-05
 Reference value :  1.12502e-05
 Reference value :  1.12502e-05
 Reference value :  1.12502e-05
 Reference value :  1.12502e-05
 Reference value :  1.12502e-05
 Reference value :  1.12503e-05
 Reference value :  1.12504e-05
 Reference value :  1.12506e-05
 Reference value :  1.12509e-05
 Reference value :  1.12514e-05
 Reference value :  1.12520e-05
 Reference value :  1.12526e-05
 Reference value :  1.12532e-05
 Reference value :  1.12541e-05
 Reference value :  1.12547e-05
 Reference value :  1.12554e-05
 Reference value :  1.12561e-05
 Reference value :  1.12568e-05
 Reference value :  1.12577e-05
 Reference value :  1.12587e-05
 Reference value :  1.12597e-05
 Reference value :  1.12612e-05
 Reference value :  1.12628e-05
 Reference value :  1.12651e-05
 Reference value :  1.12679e-05
 Reference value :  1.12721e-05
 Reference value :  1.12805e-05
 Reference value :  1.12964e-05
 Reference value :  1.13280e-05
 Reference value :  1.13912e-05
 Reference value :  1.15000e-05
 Reference value :  1.15000e-05
 Reference value :  1.15000e-05
 Reference value :  1.15001e-05
 Reference value :  1.15001e-05
 Reference value :  1.15001e-05
 Reference value :  1.15001e-05
 Reference value :  1.15001e-05
 Reference value :  1.15002e-05
 Reference value :  1.15002e-05
 Reference value :  1.15004e-05
 Reference value :  1.15005e-05
 Reference value :  1.15009e-05
 Reference value :  1.15014e-05
 Reference value :  1.15019e-05
 Reference value :  1.15024e-05
 Reference value :  1.15031e-05
 Reference value :  1.15037e-05
 Reference value :  1.15045e-05
 Reference value :  1.15051e-05
 Reference value :  1.15058e-05
 Reference value :  1.15065e-05
 Reference value :  1.15072e-05
 Reference value :  1.15080e-05
 Reference value :  1.15089e-05
 Reference value :  1.15099e-05
 Reference value :  1.15116e-05
 Reference value :  1.15132e-05
 Reference value :  1.15146e-05
 Reference value :  1.15161e-05
 Reference value :  1.15177e-05
 Reference value :  1.15189e-05
 Reference value :  1.15201e-05
 Reference value :  1.15215e-05
 Reference value :  1.15229e-05
 Reference value :  1.15242e-05
 Reference value :  1.15259e-05
 Reference value :  1.15281e-05
 Reference value :  1.15304e-05
 Reference value :  1.15344e-05
 Reference value :  1.15401e-05
 Reference value :  1.15493e-05
 Reference value :  1.15646e-05
 Reference value :  1.15791e-05
 Reference value :  1.15948e-05
 Reference value :  1.16056e-05
 Reference value :  1.16160e-05
 Reference value :  1.16226e-05
 Reference value :  1.16290e-05
 Reference value :  1.16376e-05
 Reference value :  1.16464e-05
 Reference value :  1.16575e-05
 Reference value :  1.16707e-05
 Reference value :  1.16868e-05
 Reference value :  1.17074e-05
 Reference value :  1.17333e-05
 Reference value :  1.17501e-05
 Reference value :  1.17501e-05
 Reference value :  1.17501e-05
 Reference value :  1.17502e-05
 Reference value :  1.17502e-05
 Reference value :  1.17502e-05
 Reference value :  1.17502e-05
 Reference value :  1.17502e-05
 Reference value :  1.17502e-05
 Reference value :  1.17502e-05
 Reference value :  1.17502e-05
 Reference value :  1.17503e-05
 Reference value :  1.17504e-05
 Reference value :  1.17506e-05
 Reference value :  1.17509e-05
 Reference value :  1.17514e-05
 Reference value :  1.17520e-05
 Reference value :  1.17526e-05
 Reference value :  1.17533e-05
 Reference value :  1.17541e-05
 Reference value :  1.17547e-05
 Reference value :  1.17554e-05
 Reference value :  1.17564e-05
 Reference value :  1.17572e-05
 Reference value :  1.17583e-05
 Reference value :  1.17603e-05
 Reference value :  1.17623e-05
 Reference value :  1.17655e-05
 Reference value :  1.17695e-05
 Reference value :  1.17774e-05
 Reference value :  1.17932e-05
 Reference value :  1.18248e-05
 Reference value :  1.18881e-05
 Reference value :  1.20000e-05
 Reference value :  1.20000e-05
 Reference value :  1.20000e-05
 Reference value :  1.20001e-05
 Reference value :  1.20001e-05
 Reference value :  1.20001e-05
 Reference value :  1.20001e-05
 Reference value :  1.20001e-05
 Reference value :  1.20002e-05
 Reference value :  1.20002e-05
 Reference value :  1.20004e-05
 Reference value :  1.20005e-05
 Reference value :  1.20009e-05
 Reference value :  1.20014e-05
 Reference value :  1.20019e-05
 Reference value :  1.20025e-05
 Reference value :  1.20031e-05
 Reference value :  1.20038e-05
 Reference value :  1.20045e-05
 Reference value :  1.20054e-05
 Reference value :  1.20062e-05
 Reference value :  1.20073e-05
 Reference value :  1.20087e-05
 Reference value :  1.20099e-05
 Reference value :  1.20111e-05
 Reference value :  1.20125e-05
 Reference value :  1.20141e-05
 Reference value :  1.20157e-05
 Reference value :  1.20175e-05
 Reference value :  1.20210e-05
 Reference value :  1.20268e-05
 Reference value :  1.20380e-05
 Reference value :  1.20604e-05
 Reference value :  1.21053e-05
 Reference value :  1.21833e-05
 Reference value :  1.22501e-05
 Reference value :  1.22501e-05
 Reference value :  1.22501e-05
 Reference value :  1.22502e-05
 Reference value :  1.22502e-05
 Reference value :  1.22502e-05
 Reference value :  1.22502e-05
 Reference value :  1.22502e-05
 Reference value :  1.22502e-05
 Reference value :  1.22502e-05
 Reference value :  1.22502e-05
 Reference value :  1.22503e-05
 Reference value :  1.22504e-05
 Reference value :  1.22506e-05
 Reference value :  1.22509e-05
 Reference value :  1.22514e-05
 Reference value :  1.22520e-05
 Reference value :  1.22526e-05
 Reference value :  1.22532e-05
 Reference value :  1.22541e-05
 Reference value :  1.22547e-05
 Reference value :  1.22554e-05
 Reference value :  1.22560e-05
 Reference value :  1.22567e-05
 Reference value :  1.22576e-05
 Reference value :  1.22586e-05
 Reference value :  1.22606e-05
 Reference value :  1.22627e-05
 Reference value :  1.22662e-05
 Reference value :  1.22706e-05
 Reference value :  1.22792e-05
 Reference value :  1.22965e-05
 Reference value :  1.23310e-05
 Reference value :  1.23603e-05
 Reference value :  1.23816e-05
 Reference value :  1.24017e-05
 Reference value :  1.24279e-05
 Reference value :  1.24524e-05
 Reference value :  1.24838e-05
 Reference value :  1.25000e-05
 Reference value :  1.25000e-05
 Reference value :  1.25000e-05
 Reference value :  1.25001e-05
 Reference value :  1.25001e-05
 Reference value :  1.25001e-05
 Reference value :  1.25001e-05
 Reference value :  1.25001e-05
 Reference value :  1.25002e-05
 Reference value :  1.25002e-05
 Reference value :  1.25004e-05
 Reference value :  1.25005e-05
 Reference value :  1.25009e-05
 Reference value :  1.25014e-05
 Reference value :  1.25019e-05
 Reference value :  1.25024e-05
 Reference value :  1.25031e-05
 Reference value :  1.25038e-05
 Reference value :  1.25045e-05
 Reference value :  1.25052e-05
 Reference value :  1.25059e-05
 Reference value :  1.25065e-05
 Reference value :  1.25072e-05
 Reference value :  1.25079e-05
 Reference value :  1.25089e-05
 Reference value :  1.25099e-05
 Reference value :  1.25114e-05
 Reference value :  1.25126e-05
 Reference value :  1.25139e-05
 Reference value :  1.25151e-05
 Reference value :  1.25165e-05
 Reference value :  1.25179e-05
 Reference value :  1.25189e-05
 Reference value :  1.25199e-05
 Reference value :  1.25208e-05
 Reference value :  1.25218e-05
 Reference value :  1.25229e-05
 Reference value :  1.25240e-05
 Reference value :  1.25253e-05
 Reference value :  1.25275e-05
 Reference value :  1.25298e-05
 Reference value :  1.25343e-05
 Reference value :  1.25421e-05
 Reference value :  1.25511e-05
 Reference value :  1.25691e-05
 Reference value :  1.25960e-05
 Reference value :  1.26186e-05
 Reference value :  1.26389e-05
 Reference value :  1.26620e-05
 Reference value :  1.26996e-05
 Reference value :  1.27501e-05
 Reference value :  1.27501e-05
 Reference value :  1.27501e-05
 Reference value :  1.27502e-05
 Reference value :  1.27502e-05
 Reference value :  1.27502e-05
 Reference value :  1.27502e-05
 Reference value :  1.27502e-05
 Reference value :  1.27502e-05
 Reference value :  1.27502e-05
 Reference value :  1.27502e-05
 Reference value :  1.27503e-05
 Reference value :  1.27504e-05
 Reference value :  1.27506e-05
 Reference value :  1.27509e-05
 Reference value :  1.27514e-05
 Reference value :  1.27520e-05
 Reference value :  1.27526e-05
 Reference value :  1.27533e-05
 Reference value :  1.27541e-05
 Reference value :  1.27547e-05
 Reference value :  1.27554e-05
 Reference value :  1.27564e-05
 Reference value :  1.27572e-05
 Reference value :  1.27583e-05
 Reference value :  1.27603e-05
 Reference value :  1.27623e-05
 Reference value :  1.27655e-05
 Reference value :  1.27694e-05
 Reference value :  1.27773e-05
 Reference value :  1.27930e-05
 Reference value :  1.28245e-05
 Reference value :  1.28874e-05
 Reference value :  1.30000e-05
 Reference value :  1.30000e-05
 Reference value :  1.30000e-05
 Reference value :  1.30001e-05
 Reference value :  1.30001e-05
 Reference value :  1.30001e-05
 Reference value :  1.30001e-05
 Reference value :  1.30001e-05
 Reference value :  1.30002e-05
 Reference value :  1.30002e-05
 Reference value :  1.30004e-05
 Reference value :  1.30005e-05
 Reference value :  1.30009e-05
 Reference value :  1.30014e-05
 Reference value :  1.30019e-05
 Reference value :  1.30024e-05
 Reference value :  1.30031e-05
 Reference value :  1.30038e-05
 Reference value :  1.30045e-05
 Reference value :  1.30054e-05
 Reference value :  1.30062e-05
 Reference value :  1.30073e-05
 Reference value :  1.30087e-05
 Reference value :  1.30100e-05
 Reference value :  1.30112e-05
 Reference value :  1.30124e-05
 Reference value :  1.30137e-05
 Reference value :  1.30151e-05
 Reference value :  1.30166e-05
 Reference value :  1.30197e-05
 Reference value :  1.30252e-05
 Reference value :  1.30363e-05
 Reference value :  1.30586e-05
 Reference value :  1.31030e-05
 Reference value :  1.31919e-05
 Reference value :  1.32501e-05
 Reference value :  1.32501e-05
 Reference value :  1.32501e-05
 Reference value :  1.32502e-05
 Reference value :  1.32502e-05
 Reference value :  1.32502e-05
 Reference value :  1.32502e-05
 Reference value :  1.32502e-05
 Reference value :  1.32502e-05
 Reference value :  1.32502e-05
 Reference value :  1.32502e-05
 Reference value :  1.32503e-05
 Reference value :  1.32504e-05
 Reference value :  1.32506e-05
 Reference value :  1.32509e-05
 Reference value :  1.32514e-05
 Reference value :  1.32520e-05
 Reference value :  1.32526e-05
 Reference value :  1.32533e-05
 Reference value :  1.32541e-05
 Reference value :  1.32547e-05
 Reference value :  1.32554e-05
 Reference value :  1.32561e-05
 Reference value :  1.32569e-05
 Reference value :  1.32578e-05
 Reference value :  1.32589e-05
 Reference value :  1.32610e-05
 Reference value :  1.32631e-05
 Reference value :  1.32669e-05
 Reference value :  1.32718e-05
 Reference value :  1.32815e-05
 Reference value :  1.33008e-05
 Reference value :  1.33396e-05
 Reference value :  1.34171e-05
 Reference value :  1.35000e-05
 Reference value :  1.35000e-05
 Reference value :  1.35000e-05
 Reference value :  1.35001e-05
 Reference value :  1.35001e-05
 Reference value :  1.35001e-05
 Reference value :  1.35001e-05
 Reference value :  1.35001e-05
 Reference value :  1.35002e-05
 Reference value :  1.35002e-05
 Reference value :  1.35004e-05
 Reference value :  1.35005e-05
 Reference value :  1.35009e-05
 Reference value :  1.35014e-05
 Reference value :  1.35019e-05
 Reference value :  1.35024e-05
 Reference value :  1.35031e-05
 Reference value :  1.35037e-05
 Reference value :  1.35045e-05
 Reference value :  1.35052e-05
 Reference value :  1.35059e-05
 Reference value :  1.35068e-05
 Reference value :  1.35076e-05
 Reference value :  1.35084e-05
 Reference value :  1.35096e-05
 Reference value :  1.35108e-05
 Reference value :  1.35129e-05
 Reference value :  1.35155e-05
 Reference value :  1.35175e-05
 Reference value :  1.35191e-05
 Reference value :  1.35207e-05
 Reference value :  1.35224e-05
 Reference value :  1.35240e-05
 Reference value :  1.35259e-05
 Reference value :  1.35278e-05
 Reference value :  1.35306e-05
 Reference value :  1.35342e-05
 Reference value :  1.35415e-05
 Reference value :  1.35526e-05
 Reference value :  1.35628e-05
 Reference value :  1.35726e-05
 Reference value :  1.35817e-05
 Reference value :  1.35886e-05
 Reference value :  1.35961e-05
 Reference value :  1.36039e-05
 Reference value :  1.36120e-05
 Reference value :  1.36282e-05
 Reference value :  1.36603e-05
 Reference value :  1.36950e-05
 Reference value :  1.37369e-05
 Reference value :  1.37501e-05
 Reference value :  1.37501e-05
 Reference value :  1.37501e-05
 Reference value :  1.37502e-05
 Reference value :  1.37502e-05
 Reference value :  1.37502e-05
 Reference value :  1.37502e-05
 Reference value :  1.37502e-05
 Reference value :  1.37502e-05
 Reference value :  1.37502e-05
 Reference value :  1.37502e-05
 Reference value :  1.37503e-05
 Reference value :  1.37504e-05
 Reference value :  1.37506e-05
 Reference value :  1.37509e-05
 Reference value :  1.37514e-05
 Reference value :  1.37520e-05
 Reference value :  1.37526e-05
 Reference value :  1.37533e-05
 Reference value :  1.37541e-05
 Reference value :  1.37547e-05
 Reference value :  1.37555e-05
 Reference value :  1.37564e-05
 Reference value :  1.37573e-05
 Reference value :  1.37584e-05
 Reference value :  1.37603e-05
 Reference value :  1.37622e-05
 Reference value :  1.37654e-05
 Reference value :  1.37694e-05
 Reference value :  1.37774e-05
 Reference value :  1.37933e-05
 Reference value :  1.38252e-05
 Reference value :  1.38889e-05
 Reference value :  1.40000e-05
 Reference value :  1.40000e-05
 Reference value :  1.40000e-05
 Reference value :  1.40001e-05
 Reference value :  1.40001e-05
 Reference value :  1.40001e-05
 Reference value :  1.40001e-05
 Reference value :  1.40001e-05
 Reference value :  1.40002e-05
 Reference value :  1.40002e-05
 Reference value :  1.40004e-05
 Reference value :  1.40005e-05
 Reference value :  1.40009e-05
 Reference value :  1.40014e-05
 Reference value :  1.40019e-05
 Reference value :  1.40025e-05
 Reference value :  1.40031e-05
 Reference value :  1.40038e-05
 Reference value :  1.40045e-05
 Reference value :  1.40054e-05
 Reference value :  1.40062e-05
 Reference value :  1.40075e-05
 Reference value :  1.40089e-05
 Reference value :  1.40101e-05
 Reference value :  1.40115e-05
 Reference value :  1.40130e-05
 Reference value :  1.40144e-05
 Reference value :  1.40160e-05
 Reference value :  1.40178e-05
 Reference value :  1.40207e-05
 Reference value :  1.40251e-05
 Reference value :  1.40330e-05
 Reference value :  1.40475e-05
 Reference value :  1.40739e-05
 Reference value :  1.41248e-05
 Reference value :  1.42267e-05
 Reference value :  1.42501e-05
 Reference value :  1.42501e-05
 Reference value :  1.42501e-05
 Reference value :  1.42502e-05
 Reference value :  1.42502e-05
 Reference value :  1.42502e-05
 Reference value :  1.42502e-05
 Reference value :  1.42502e-05
 Reference value :  1.42502e-05
 Reference value :  1.42502e-05
 Reference value :  1.42502e-05
 Reference value :  1.42503e-05
 Reference value :  1.42504e-05
 Reference value :  1.42506e-05
 Reference value :  1.42509e-05
 Reference value :  1.42514e-05
 Reference value :  1.42520e-05
 Reference value :  1.42526e-05
 Reference value :  1.42533e-05
 Reference value :  1.42541e-05
 Reference value :  1.42547e-05
 Reference value :  1.42554e-05
 Reference value :  1.42561e-05
 Reference value :  1.42568e-05
 Reference value :  1.42578e-05
 Reference value :  1.42588e-05
 Reference value :  1.42609e-05
 Reference value :  1.42630e-05
 Reference value :  1.42667e-05
 Reference value :  1.42714e-05
 Reference value :  1.42807e-05
 Reference value :  1.42993e-05
 Reference value :  1.43365e-05
 Reference value :  1.44109e-05
 Reference value :  1.45000e-05
 Reference value :  1.45000e-05
 Reference value :  1.45000e-05
 Reference value :  1.45001e-05
 Reference value :  1.45001e-05
 Reference value :  1.45001e-05
 Reference value :  1.45001e-05
 Reference value :  1.45001e-05
 Reference value :  1.45002e-05
 Reference value :  1.45002e-05
 Reference value :  1.45004e-05
 Reference value :  1.45005e-05
 Reference value :  1.45009e-05
 Reference value :  1.45014e-05
 Reference value :  1.45019e-05
 Reference value :  1.45024e-05
 Reference value :  1.45031e-05
 Reference value :  1.45038e-05
 Reference value :  1.45045e-05
 Reference value :  1.45052e-05
 Reference value :  1.45059e-05
 Reference value :  1.45067e-05
 Reference value :  1.45074e-05
 Reference value :  1.45083e-05
 Reference value :  1.45094e-05
 Reference value :  1.45107e-05
 Reference value :  1.45128e-05
 Reference value :  1.45153e-05
 Reference value :  1.45173e-05
 Reference value :  1.45194e-05
 Reference value :  1.45210e-05
 Reference value :  1.45228e-05
 Reference value :  1.45245e-05
 Reference value :  1.45264e-05
 Reference value :  1.45286e-05
 Reference value :  1.45310e-05
 Reference value :  1.45345e-05
 Reference value :  1.45393e-05
 Reference value :  1.45468e-05
 Reference value :  1.45542e-05
 Reference value :  1.45629e-05
 Reference value :  1.45717e-05
 Reference value :  1.45804e-05
 Reference value :  1.45888e-05
 Reference value :  1.45991e-05
 Reference value :  1.46099e-05
 Reference value :  1.46228e-05
 Reference value :  1.46485e-05
 Reference value :  1.46999e-05
 Reference value :  1.47501e-05
 Reference value :  1.47501e-05
 Reference value :  1.47501e-05
 Reference value :  1.47502e-05
 Reference value :  1.47502e-05
 Reference value :  1.47502e-05
 Reference value :  1.47502e-05
 Reference value :  1.47502e-05
 Reference value :  1.47502e-05
 Reference value :  1.47502e-05
 Reference value :  1.47502e-05
 Reference value :  1.47503e-05
 Reference value :  1.47504e-05
 Reference value :  1.47506e-05
 Reference value :  1.47509e-05
 Reference value :  1.47514e-05
 Reference value :  1.47520e-05
 Reference value :  1.47526e-05
 Reference value :  1.47533e-05
 Reference value :  1.47541e-05
 Reference value :  1.47547e-05
 Reference value :  1.47555e-05
 Reference value :  1.47564e-05
 Reference value :  1.47572e-05
 Reference value :  1.47583e-05
 Reference value :  1.47605e-05
 Reference value :  1.47624e-05
 Reference value :  1.47657e-05
 Reference value :  1.47697e-05
 Reference value :  1.47776e-05
 Reference value :  1.47934e-05
 Reference value :  1.48251e-05
 Reference value :  1.48884e-05
 Reference value :  1.50000e-05
 Reference value :  1.50000e-05
 Reference value :  1.50000e-05
 Reference value :  1.50001e-05
 Reference value :  1.50001e-05
 Reference value :  1.50001e-05
 Reference value :  1.50001e-05
 Reference value :  1.50001e-05
 Reference value :  1.50002e-05
 Reference value :  1.50002e-05
 Reference value :  1.50004e-05
 Reference value :  1.50005e-05
 Reference value :  1.50009e-05
 Reference value :  1.50014e-05
 Reference value :  1.50019e-05
 Reference value :  1.50025e-05
 Reference value :  1.50031e-05
 Reference value :  1.50038e-05
 Reference value :  1.50045e-05
 Reference value :  1.50054e-05
 Reference value :  1.50062e-05
 Reference value :  1.50073e-05
 Reference value :  1.50087e-05
 Reference value :  1.50099e-05
 Reference value :  1.50112e-05
 Reference value :  1.50123e-05
 Reference value :  1.50136e-05
 Reference value :  1.50149e-05
 Reference value :  1.50164e-05
 Reference value :  1.50194e-05
 Reference value :  1.50255e-05
 Reference value :  1.50362e-05
 Reference value :  1.50576e-05
 Reference value :  1.51005e-05
 Reference value :  1.51863e-05
 Reference value :  1.52501e-05
 Reference value :  1.52501e-05
 Reference value :  1.52501e-05
 Reference value :  1.52502e-05
 Reference value :  1.52502e-05
 Reference value :  1.52502e-05
 Reference value :  1.52502e-05
 Reference value :  1.52502e-05
 Reference value :  1.52502e-05
 Reference value :  1.52502e-05
 Reference value :  1.52502e-05
 Reference value :  1.52503e-05
 Reference value :  1.52504e-05
 Reference value :  1.52506e-05
 Reference value :  1.52509e-05
 Reference value :  1.52514e-05
 Reference value :  1.52520e-05
 Reference value :  1.52526e-05
 Reference value :  1.52533e-05
 Reference value :  1.52541e-05
 Reference value :  1.52547e-05
 Reference value :  1.52554e-05
 Reference value :  1.52561e-05
 Reference value :  1.52569e-05
 Reference value :  1.52578e-05
 Reference value :  1.52589e-05
 Reference value :  1.52610e-05
 Reference value :  1.52631e-05
 Reference value :  1.52669e-05
 Reference value :  1.52718e-05
 Reference value :  1.52815e-05
 Reference value :  1.53008e-05
 Reference value :  1.53396e-05
 Reference value :  1.54170e-05
 Reference value :  1.55000e-05
 Reference value :  1.55012e-05
 Reference value :  1.55035e-05
 Reference value :  1.55048e-05
 Reference value :  1.55060e-05
 Reference value :  1.55074e-05
 Reference value :  1.55086e-05
 Reference value :  1.55098e-05
 Reference value :  1.55112e-05
 Reference value :  1.55127e-05
 Reference value :  1.55148e-05
 Reference value :  1.55168e-05
 Reference value :  1.55187e-05
 Reference value :  1.55202e-05
 Reference value :  1.55216e-05
 Reference value :  1.55228e-05
 Reference value :  1.55242e-05
 Reference value :  1.55258e-05
 Reference value :  1.55276e-05
 Reference value :  1.55298e-05
 Reference value :  1.55330e-05
 Reference value :  1.55371e-05
 Reference value :  1.55418e-05
 Reference value :  1.55476e-05
 Reference value :  1.55580e-05
 Reference value :  1.55763e-05
 Reference value :  1.56057e-05
 Reference value :  1.56453e-05
 Reference value :  1.57244e-05
 Reference value :  1.57501e-05
 Reference value :  1.57501e-05
 Reference value :  1.57501e-05
 Reference value :  1.57502e-05
 Reference value :  1.57502e-05
 Reference value :  1.57502e-05
 Reference value :  1.57502e-05
 Reference value :  1.57502e-05
 Reference value :  1.57502e-05
 Reference value :  1.57502e-05
 Reference value :  1.57502e-05
 Reference value :  1.57503e-05
 Reference value :  1.57504e-05
 Reference value :  1.57506e-05
 Reference value :  1.57509e-05
 Reference value :  1.57514e-05
 Reference value :  1.57520e-05
 Reference value :  1.57526e-05
 Reference value :  1.57532e-05
 Reference value :  1.57541e-05
 Reference value :  1.57547e-05
 Reference value :  1.57554e-05
 Reference value :  1.57562e-05
 Reference value :  1.57570e-05
 Reference value :  1.57581e-05
 Reference value :  1.57598e-05
 Reference value :  1.57618e-05
 Reference value :  1.57646e-05
 Reference value :  1.57684e-05
 Reference value :  1.57762e-05
 Reference value :  1.57918e-05
 Reference value :  1.58216e-05
 Reference value :  1.58814e-05
 Reference value :  1.60000e-05
 Reference value :  1.60000e-05
 Reference value :  1.60000e-05
 Reference value :  1.60001e-05
 Reference value :  1.60001e-05
 Reference value :  1.60001e-05
 Reference value :  1.60001e-05
 Reference value :  1.60001e-05
 Reference value :  1.60002e-05
 Reference value :  1.60002e-05
 Reference value :  1.60004e-05
 Reference value :  1.60005e-05
 Reference value :  1.60009e-05
 Reference value :  1.60014e-05
 Reference value :  1.60019e-05
 Reference value :  1.60025e-05
[...]
 Reference value :  1.74262e-04
 Reference value :  1.74265e-04
 Reference value :  1.74269e-04
 Reference value :  1.74277e-04
 Reference value :  1.74292e-04
 Reference value :  1.74323e-04
 Reference value :  1.74385e-04
 Reference value :  1.74500e-04
 Reference value :  1.74500e-04
 Reference value :  1.74500e-04
 Reference value :  1.74500e-04
 Reference value :  1.74500e-04
 Reference value :  1.74500e-04
 Reference value :  1.74500e-04
 Reference value :  1.74500e-04
 Reference value :  1.74500e-04
 Reference value :  1.74500e-04
 Reference value :  1.74500e-04
 Reference value :  1.74501e-04
 Reference value :  1.74501e-04
 Reference value :  1.74501e-04
 Reference value :  1.74502e-04
 Reference value :  1.74502e-04
 Reference value :  1.74503e-04
 Reference value :  1.74504e-04
 Reference value :  1.74505e-04
 Reference value :  1.74505e-04
 Reference value :  1.74506e-04
 Reference value :  1.74507e-04
 Reference value :  1.74509e-04
 Reference value :  1.74510e-04
 Reference value :  1.74511e-04
 Reference value :  1.74512e-04
 Reference value :  1.74514e-04
 Reference value :  1.74515e-04
 Reference value :  1.74516e-04
 Reference value :  1.74519e-04
 Reference value :  1.74525e-04
 Reference value :  1.74536e-04
 Reference value :  1.74557e-04
 Reference value :  1.74600e-04
 Reference value :  1.74684e-04
 Reference value :  1.74750e-04
 Reference value :  1.74750e-04
 Reference value :  1.74750e-04
 Reference value :  1.74750e-04
 Reference value :  1.74750e-04
 Reference value :  1.74750e-04
 Reference value :  1.74750e-04
 Reference value :  1.74750e-04
 Reference value :  1.74750e-04
 Reference value :  1.74750e-04
 Reference value :  1.74750e-04
 Reference value :  1.74750e-04
 Reference value :  1.74750e-04
 Reference value :  1.74751e-04
 Reference value :  1.74751e-04
 Reference value :  1.74751e-04
 Reference value :  1.74752e-04
 Reference value :  1.74753e-04
 Reference value :  1.74753e-04
 Reference value :  1.74754e-04
 Reference value :  1.74755e-04
 Reference value :  1.74755e-04
 Reference value :  1.74756e-04
 Reference value :  1.74757e-04
 Reference value :  1.74758e-04
 Reference value :  1.74759e-04
 Reference value :  1.74760e-04
 Reference value :  1.74762e-04
 Reference value :  1.74764e-04
 Reference value :  1.74766e-04
 Reference value :  1.74769e-04
 Reference value :  1.74774e-04
 Reference value :  1.74783e-04
 Reference value :  1.74801e-04
 Reference value :  1.74838e-04
 Reference value :  1.74911e-04
 Reference value :  1.75000e-04
 Reference value :  1.75000e-04
 Reference value :  1.75000e-04
 Reference value :  1.75000e-04
 Reference value :  1.75000e-04
 Reference value :  1.75000e-04
 Reference value :  1.75000e-04
 Reference value :  1.75000e-04
 Reference value :  1.75000e-04
 Reference value :  1.75000e-04
 Reference value :  1.75000e-04
 Reference value :  1.75001e-04
 Reference value :  1.75001e-04
 Reference value :  1.75001e-04
 Reference value :  1.75002e-04
 Reference value :  1.75002e-04
 Reference value :  1.75003e-04
 Reference value :  1.75004e-04
 Reference value :  1.75005e-04
 Reference value :  1.75005e-04
 Reference value :  1.75006e-04
 Reference value :  1.75007e-04
 Reference value :  1.75007e-04
 Reference value :  1.75008e-04
 Reference value :  1.75009e-04
 Reference value :  1.75010e-04
 Reference value :  1.75012e-04
 Reference value :  1.75013e-04
 Reference value :  1.75014e-04
 Reference value :  1.75016e-04
 Reference value :  1.75017e-04
 Reference value :  1.75019e-04
 Reference value :  1.75020e-04
 Reference value :  1.75021e-04
 Reference value :  1.75023e-04
 Reference value :  1.75024e-04
 Reference value :  1.75026e-04
 Reference value :  1.75028e-04
 Reference value :  1.75030e-04
 Reference value :  1.75034e-04
 Reference value :  1.75037e-04
 Reference value :  1.75041e-04
 Reference value :  1.75044e-04
 Reference value :  1.75046e-04
 Reference value :  1.75049e-04
 Reference value :  1.75051e-04
 Reference value :  1.75054e-04
 Reference value :  1.75059e-04
 Reference value :  1.75065e-04
 Reference value :  1.75076e-04
 Reference value :  1.75091e-04
 Reference value :  1.75113e-04
 Reference value :  1.75147e-04
 Reference value :  1.75214e-04
 Reference value :  1.75250e-04
 Reference value :  1.75250e-04
 Reference value :  1.75250e-04
 Reference value :  1.75250e-04
 Reference value :  1.75250e-04
 Reference value :  1.75250e-04
 Reference value :  1.75250e-04
 Reference value :  1.75250e-04
 Reference value :  1.75250e-04
 Reference value :  1.75250e-04
 Reference value :  1.75250e-04
 Reference value :  1.75250e-04
 Reference value :  1.75250e-04
 Reference value :  1.75251e-04
 Reference value :  1.75251e-04
 Reference value :  1.75251e-04
 Reference value :  1.75252e-04
 Reference value :  1.75253e-04
 Reference value :  1.75253e-04
 Reference value :  1.75254e-04
 Reference value :  1.75255e-04
 Reference value :  1.75255e-04
 Reference value :  1.75256e-04
 Reference value :  1.75257e-04
 Reference value :  1.75258e-04
 Reference value :  1.75260e-04
 Reference value :  1.75262e-04
 Reference value :  1.75266e-04
 Reference value :  1.75270e-04
 Reference value :  1.75278e-04
 Reference value :  1.75294e-04
 Reference value :  1.75325e-04
 Reference value :  1.75389e-04
 Reference value :  1.75500e-04
 Reference value :  1.75500e-04
 Reference value :  1.75500e-04
 Reference value :  1.75500e-04
 Reference value :  1.75500e-04
 Reference value :  1.75500e-04
 Reference value :  1.75500e-04
 Reference value :  1.75500e-04
 Reference value :  1.75500e-04
 Reference value :  1.75500e-04
 Reference value :  1.75500e-04
 Reference value :  1.75501e-04
 Reference value :  1.75501e-04
 Reference value :  1.75501e-04
 Reference value :  1.75502e-04
 Reference value :  1.75502e-04
 Reference value :  1.75503e-04
 Reference value :  1.75504e-04
 Reference value :  1.75505e-04
 Reference value :  1.75505e-04
 Reference value :  1.75506e-04
 Reference value :  1.75508e-04
 Reference value :  1.75509e-04
 Reference value :  1.75510e-04
 Reference value :  1.75512e-04
 Reference value :  1.75513e-04
 Reference value :  1.75514e-04
 Reference value :  1.75516e-04
 Reference value :  1.75518e-04
 Reference value :  1.75521e-04
 Reference value :  1.75525e-04
 Reference value :  1.75534e-04
 Reference value :  1.75549e-04
 Reference value :  1.75579e-04
 Reference value :  1.75637e-04
 Reference value :  1.75750e-04
 Reference value :  1.75750e-04
 Reference value :  1.75750e-04
 Reference value :  1.75750e-04
 Reference value :  1.75750e-04
 Reference value :  1.75750e-04
 Reference value :  1.75750e-04
 Reference value :  1.75750e-04
 Reference value :  1.75750e-04
 Reference value :  1.75750e-04
 Reference value :  1.75750e-04
 Reference value :  1.75750e-04
 Reference value :  1.75750e-04
 Reference value :  1.75751e-04
 Reference value :  1.75751e-04
 Reference value :  1.75751e-04
 Reference value :  1.75752e-04
 Reference value :  1.75753e-04
 Reference value :  1.75753e-04
 Reference value :  1.75754e-04
 Reference value :  1.75755e-04
 Reference value :  1.75755e-04
 Reference value :  1.75756e-04
 Reference value :  1.75757e-04
 Reference value :  1.75758e-04
 Reference value :  1.75759e-04
 Reference value :  1.75761e-04
 Reference value :  1.75763e-04
 Reference value :  1.75767e-04
 Reference value :  1.75772e-04
 Reference value :  1.75781e-04
 Reference value :  1.75800e-04
 Reference value :  1.75838e-04
 Reference value :  1.75915e-04
 Reference value :  1.76000e-04
 Reference value :  1.76000e-04
 Reference value :  1.76000e-04
 Reference value :  1.76000e-04
 Reference value :  1.76000e-04
 Reference value :  1.76000e-04
 Reference value :  1.76000e-04
 Reference value :  1.76000e-04
 Reference value :  1.76000e-04
 Reference value :  1.76000e-04
 Reference value :  1.76000e-04
 Reference value :  1.76001e-04
 Reference value :  1.76001e-04
 Reference value :  1.76001e-04
 Reference value :  1.76002e-04
 Reference value :  1.76002e-04
 Reference value :  1.76003e-04
 Reference value :  1.76004e-04
 Reference value :  1.76005e-04
 Reference value :  1.76005e-04
 Reference value :  1.76006e-04
 Reference value :  1.76007e-04
 Reference value :  1.76007e-04
 Reference value :  1.76008e-04
 Reference value :  1.76009e-04
 Reference value :  1.76011e-04
 Reference value :  1.76013e-04
 Reference value :  1.76015e-04
 Reference value :  1.76017e-04
 Reference value :  1.76019e-04
 Reference value :  1.76021e-04
 Reference value :  1.76023e-04
 Reference value :  1.76025e-04
 Reference value :  1.76026e-04
 Reference value :  1.76029e-04
 Reference value :  1.76031e-04
 Reference value :  1.76035e-04
 Reference value :  1.76039e-04
 Reference value :  1.76045e-04
 Reference value :  1.76053e-04
 Reference value :  1.76058e-04
 Reference value :  1.76063e-04
 Reference value :  1.76071e-04
 Reference value :  1.76078e-04
 Reference value :  1.76085e-04
 Reference value :  1.76093e-04
 Reference value :  1.76105e-04
 Reference value :  1.76123e-04
 Reference value :  1.76149e-04
 Reference value :  1.76190e-04
 Reference value :  1.76243e-04
 Reference value :  1.76250e-04
 Reference value :  1.76250e-04
 Reference value :  1.76250e-04
 Reference value :  1.76250e-04
 Reference value :  1.76250e-04
 Reference value :  1.76250e-04
 Reference value :  1.76250e-04
 Reference value :  1.76250e-04
 Reference value :  1.76250e-04
 Reference value :  1.76250e-04
 Reference value :  1.76250e-04
 Reference value :  1.76250e-04
 Reference value :  1.76250e-04
 Reference value :  1.76251e-04
 Reference value :  1.76251e-04
 Reference value :  1.76251e-04
 Reference value :  1.76252e-04
 Reference value :  1.76253e-04
 Reference value :  1.76253e-04
 Reference value :  1.76254e-04
 Reference value :  1.76255e-04
 Reference value :  1.76255e-04
 Reference value :  1.76256e-04
 Reference value :  1.76257e-04
 Reference value :  1.76258e-04
 Reference value :  1.76260e-04
 Reference value :  1.76262e-04
 Reference value :  1.76265e-04
 Reference value :  1.76269e-04
 Reference value :  1.76277e-04
 Reference value :  1.76292e-04
 Reference value :  1.76323e-04
 Reference value :  1.76385e-04
 Reference value :  1.76500e-04
 Reference value :  1.76500e-04
 Reference value :  1.76500e-04
 Reference value :  1.76500e-04
 Reference value :  1.76500e-04
 Reference value :  1.76500e-04
 Reference value :  1.76500e-04
 Reference value :  1.76500e-04
 Reference value :  1.76500e-04
 Reference value :  1.76500e-04
 Reference value :  1.76500e-04
 Reference value :  1.76501e-04
 Reference value :  1.76501e-04
 Reference value :  1.76501e-04
 Reference value :  1.76502e-04
 Reference value :  1.76502e-04
 Reference value :  1.76503e-04
 Reference value :  1.76504e-04
 Reference value :  1.76505e-04
 Reference value :  1.76505e-04
 Reference value :  1.76506e-04
 Reference value :  1.76507e-04
 Reference value :  1.76509e-04
 Reference value :  1.76510e-04
 Reference value :  1.76511e-04
 Reference value :  1.76512e-04
 Reference value :  1.76514e-04
 Reference value :  1.76515e-04
 Reference value :  1.76516e-04
 Reference value :  1.76519e-04
 Reference value :  1.76525e-04
 Reference value :  1.76536e-04
 Reference value :  1.76556e-04
 Reference value :  1.76598e-04
 Reference value :  1.76681e-04
 Reference value :  1.76750e-04
 Reference value :  1.76750e-04
 Reference value :  1.76750e-04
 Reference value :  1.76750e-04
 Reference value :  1.76750e-04
 Reference value :  1.76750e-04
 Reference value :  1.76750e-04
 Reference value :  1.76750e-04
 Reference value :  1.76750e-04
 Reference value :  1.76750e-04
 Reference value :  1.76750e-04
 Reference value :  1.76750e-04
 Reference value :  1.76750e-04
 Reference value :  1.76751e-04
 Reference value :  1.76751e-04
 Reference value :  1.76751e-04
 Reference value :  1.76752e-04
 Reference value :  1.76753e-04
 Reference value :  1.76753e-04
 Reference value :  1.76754e-04
 Reference value :  1.76755e-04
 Reference value :  1.76755e-04
 Reference value :  1.76756e-04
 Reference value :  1.76757e-04
 Reference value :  1.76758e-04
 Reference value :  1.76759e-04
 Reference value :  1.76760e-04
 Reference value :  1.76762e-04
 Reference value :  1.76764e-04
 Reference value :  1.76766e-04
 Reference value :  1.76769e-04
 Reference value :  1.76774e-04
 Reference value :  1.76783e-04
 Reference value :  1.76802e-04
 Reference value :  1.76838e-04
 Reference value :  1.76912e-04
 Reference value :  1.77000e-04
 Reference value :  1.77000e-04
 Reference value :  1.77000e-04
 Reference value :  1.77000e-04
 Reference value :  1.77000e-04
 Reference value :  1.77000e-04
 Reference value :  1.77000e-04
 Reference value :  1.77000e-04
 Reference value :  1.77000e-04
 Reference value :  1.77000e-04
 Reference value :  1.77000e-04
 Reference value :  1.77001e-04
 Reference value :  1.77001e-04
 Reference value :  1.77001e-04
 Reference value :  1.77002e-04
 Reference value :  1.77002e-04
 Reference value :  1.77003e-04
 Reference value :  1.77004e-04
 Reference value :  1.77005e-04
 Reference value :  1.77005e-04
 Reference value :  1.77006e-04
 Reference value :  1.77007e-04
 Reference value :  1.77007e-04
 Reference value :  1.77008e-04
 Reference value :  1.77009e-04
 Reference value :  1.77010e-04
 Reference value :  1.77012e-04
 Reference value :  1.77013e-04
 Reference value :  1.77014e-04
 Reference value :  1.77016e-04
 Reference value :  1.77017e-04
 Reference value :  1.77019e-04
 Reference value :  1.77021e-04
 Reference value :  1.77022e-04
 Reference value :  1.77023e-04
 Reference value :  1.77024e-04
 Reference value :  1.77026e-04
 Reference value :  1.77028e-04
 Reference value :  1.77030e-04
 Reference value :  1.77034e-04
 Reference value :  1.77038e-04
 Reference value :  1.77043e-04
 Reference value :  1.77048e-04
 Reference value :  1.77059e-04
 Reference value :  1.77076e-04
 Reference value :  1.77104e-04
 Reference value :  1.77146e-04
 Reference value :  1.77185e-04
 Reference value :  1.77222e-04
 Reference value :  1.77250e-04
 Reference value :  1.77250e-04
 Reference value :  1.77250e-04
 Reference value :  1.77250e-04
 Reference value :  1.77250e-04
 Reference value :  1.77250e-04
 Reference value :  1.77250e-04
 Reference value :  1.77250e-04
 Reference value :  1.77250e-04
 Reference value :  1.77250e-04
 Reference value :  1.77250e-04
 Reference value :  1.77250e-04
 Reference value :  1.77250e-04
 Reference value :  1.77251e-04
 Reference value :  1.77251e-04
 Reference value :  1.77251e-04
 Reference value :  1.77252e-04
 Reference value :  1.77253e-04
 Reference value :  1.77253e-04
 Reference value :  1.77254e-04
 Reference value :  1.77255e-04
 Reference value :  1.77255e-04
 Reference value :  1.77256e-04
 Reference value :  1.77257e-04
 Reference value :  1.77258e-04
 Reference value :  1.77260e-04
 Reference value :  1.77262e-04
 Reference value :  1.77265e-04
 Reference value :  1.77269e-04
 Reference value :  1.77276e-04
 Reference value :  1.77292e-04
 Reference value :  1.77321e-04
 Reference value :  1.77380e-04
 Reference value :  1.77498e-04
 Reference value :  1.77500e-04
 Reference value :  1.77500e-04
 Reference value :  1.77500e-04
 Reference value :  1.77500e-04
 Reference value :  1.77500e-04
 Reference value :  1.77500e-04
 Reference value :  1.77500e-04
 Reference value :  1.77500e-04
 Reference value :  1.77500e-04
 Reference value :  1.77500e-04
 Reference value :  1.77500e-04
 Reference value :  1.77501e-04
 Reference value :  1.77501e-04
 Reference value :  1.77501e-04
 Reference value :  1.77502e-04
 Reference value :  1.77502e-04
 Reference value :  1.77503e-04
 Reference value :  1.77504e-04
 Reference value :  1.77505e-04
 Reference value :  1.77505e-04
 Reference value :  1.77506e-04
 Reference value :  1.77508e-04
 Reference value :  1.77509e-04
 Reference value :  1.77510e-04
 Reference value :  1.77512e-04
 Reference value :  1.77513e-04
 Reference value :  1.77514e-04
 Reference value :  1.77516e-04
 Reference value :  1.77518e-04
 Reference value :  1.77521e-04
 Reference value :  1.77525e-04
 Reference value :  1.77534e-04
 Reference value :  1.77551e-04
 Reference value :  1.77582e-04
 Reference value :  1.77645e-04
 Reference value :  1.77750e-04
 Reference value :  1.77750e-04
 Reference value :  1.77750e-04
 Reference value :  1.77750e-04
 Reference value :  1.77750e-04
 Reference value :  1.77750e-04
 Reference value :  1.77750e-04
 Reference value :  1.77750e-04
 Reference value :  1.77750e-04
 Reference value :  1.77750e-04
 Reference value :  1.77750e-04
 Reference value :  1.77750e-04
 Reference value :  1.77750e-04
 Reference value :  1.77751e-04
 Reference value :  1.77751e-04
 Reference value :  1.77751e-04
 Reference value :  1.77752e-04
 Reference value :  1.77753e-04
 Reference value :  1.77753e-04
 Reference value :  1.77754e-04
 Reference value :  1.77755e-04
 Reference value :  1.77755e-04
 Reference value :  1.77756e-04
 Reference value :  1.77757e-04
 Reference value :  1.77758e-04
 Reference value :  1.77759e-04
 Reference value :  1.77760e-04
 Reference value :  1.77761e-04
 Reference value :  1.77763e-04
 Reference value :  1.77765e-04
 Reference value :  1.77768e-04
 Reference value :  1.77772e-04
 Reference value :  1.77781e-04
 Reference value :  1.77798e-04
 Reference value :  1.77832e-04
 Reference value :  1.77900e-04
 Reference value :  1.78000e-04
 Reference value :  1.78000e-04
 Reference value :  1.78000e-04
 Reference value :  1.78000e-04
 Reference value :  1.78000e-04
 Reference value :  1.78000e-04
 Reference value :  1.78000e-04
 Reference value :  1.78000e-04
 Reference value :  1.78000e-04
 Reference value :  1.78000e-04
 Reference value :  1.78000e-04
 Reference value :  1.78001e-04
 Reference value :  1.78001e-04
 Reference value :  1.78001e-04
 Reference value :  1.78002e-04
 Reference value :  1.78002e-04
 Reference value :  1.78003e-04
 Reference value :  1.78004e-04
 Reference value :  1.78005e-04
 Reference value :  1.78005e-04
 Reference value :  1.78006e-04
 Reference value :  1.78007e-04
 Reference value :  1.78007e-04
 Reference value :  1.78008e-04
 Reference value :  1.78009e-04
 Reference value :  1.78010e-04
 Reference value :  1.78012e-04
 Reference value :  1.78013e-04
 Reference value :  1.78014e-04
 Reference value :  1.78016e-04
 Reference value :  1.78017e-04
 Reference value :  1.78019e-04
 Reference value :  1.78021e-04
 Reference value :  1.78023e-04
 Reference value :  1.78027e-04
 Reference value :  1.78030e-04
 Reference value :  1.78034e-04
 Reference value :  1.78039e-04
 Reference value :  1.78043e-04
 Reference value :  1.78047e-04
 Reference value :  1.78052e-04
 Reference value :  1.78058e-04
 Reference value :  1.78064e-04
 Reference value :  1.78076e-04
 Reference value :  1.78097e-04
 Reference value :  1.78130e-04
 Reference value :  1.78192e-04
 Reference value :  1.78250e-04
 Reference value :  1.78250e-04
 Reference value :  1.78250e-04
 Reference value :  1.78250e-04
 Reference value :  1.78250e-04
 Reference value :  1.78250e-04
 Reference value :  1.78250e-04
 Reference value :  1.78250e-04
 Reference value :  1.78250e-04
 Reference value :  1.78250e-04
 Reference value :  1.78250e-04
 Reference value :  1.78250e-04
 Reference value :  1.78250e-04
 Reference value :  1.78251e-04
 Reference value :  1.78251e-04
 Reference value :  1.78251e-04
 Reference value :  1.78252e-04
 Reference value :  1.78253e-04
 Reference value :  1.78253e-04
 Reference value :  1.78254e-04
 Reference value :  1.78255e-04
 Reference value :  1.78256e-04
 Reference value :  1.78258e-04
 Reference value :  1.78259e-04
 Reference value :  1.78261e-04
 Reference value :  1.78264e-04
 Reference value :  1.78267e-04
 Reference value :  1.78273e-04
 Reference value :  1.78284e-04
 Reference value :  1.78307e-04
 Reference value :  1.78352e-04
 Reference value :  1.78441e-04
 Reference value :  1.78500e-04
No. of Data Rows : 27418
ngspice-44 done
