
Note: Compatibility modes selected: hs a


Circuit: ** sch_path: /home/audrey/cace/sar-adc-using-sky130-pdk/runs/run_2025-09-09_16-41-05/parameters/power/run_1/power_consumption.sch

option SCALE: Scale is set to 1e-06 for instance and model parameters
option SCALE: Scale is set to 1e-06 for instance and model parameters
option SCALE: Scale is set to 1e-06 for instance and model parameters
option SCALE: Scale is set to 1e-06 for instance and model parameters
Doing analysis at TEMP = 27.000000 and TNOM = 27.000000

Using KLU as Direct Linear Solver
 Reference value :  0.00000e+00
 Reference value :  1.00000e-12
 Reference value :  2.00000e-12
 Reference value :  4.00000e-12
 Reference value :  8.00000e-12
 Reference value :  1.60000e-11
 Reference value :  3.20000e-11
 Reference value :  6.40000e-11
 Reference value :  1.00000e-10
 Reference value :  1.01503e-10
 Reference value :  1.04508e-10
 Reference value :  1.10520e-10
 Reference value :  1.22542e-10
 Reference value :  1.46587e-10
 Reference value :  1.94676e-10
 Reference value :  2.90855e-10
 Reference value :  4.40083e-10
 Reference value :  7.34069e-10
 Reference value :  1.08266e-09
 Reference value :  1.60977e-09
 Reference value :  2.19767e-09
 Reference value :  2.78301e-09
 Reference value :  3.47574e-09
 Reference value :  4.23117e-09
 Reference value :  4.88687e-09
 Reference value :  5.59832e-09
 Reference value :  6.32106e-09
 Reference value :  6.98855e-09
 Reference value :  7.86639e-09
 Reference value :  8.79342e-09
 Reference value :  9.83172e-09
 Reference value :  1.09902e-08
 Reference value :  1.23367e-08
 Reference value :  1.37025e-08
 Reference value :  1.50159e-08
 Reference value :  1.61402e-08
 Reference value :  1.73436e-08
 Reference value :  1.86682e-08
 Reference value :  2.02644e-08
 Reference value :  2.27797e-08
 Reference value :  2.47333e-08
 Reference value :  2.72686e-08
 Reference value :  3.01252e-08
 Reference value :  3.44967e-08
 Reference value :  3.99634e-08
 Reference value :  4.67676e-08
 Reference value :  5.51316e-08
 Reference value :  6.46886e-08
 Reference value :  7.70626e-08
 Reference value :  9.31362e-08
 Reference value :  1.15877e-07
 Reference value :  1.46676e-07
 Reference value :  1.91338e-07
 Reference value :  2.50100e-07
 Reference value :  2.50110e-07
 Reference value :  2.50130e-07
 Reference value :  2.50170e-07
 Reference value :  2.50200e-07
 Reference value :  2.50201e-07
 Reference value :  2.50202e-07
 Reference value :  2.50204e-07
 Reference value :  2.50208e-07
 Reference value :  2.50216e-07
 Reference value :  2.50233e-07
 Reference value :  2.50266e-07
 Reference value :  2.50333e-07
 Reference value :  2.50411e-07
 Reference value :  2.50568e-07
 Reference value :  2.50733e-07
 Reference value :  2.51063e-07
 Reference value :  2.51410e-07
 Reference value :  2.51890e-07
 Reference value :  2.52441e-07
 Reference value :  2.53057e-07
 Reference value :  2.53888e-07
 Reference value :  2.54566e-07
 Reference value :  2.55337e-07
 Reference value :  2.56071e-07
 Reference value :  2.56893e-07
 Reference value :  2.57694e-07
 Reference value :  2.59093e-07
 Reference value :  2.61161e-07
 Reference value :  2.63282e-07
 Reference value :  2.66723e-07
 Reference value :  2.71293e-07
 Reference value :  2.80433e-07
 Reference value :  2.98713e-07
 Reference value :  3.35272e-07
 Reference value :  4.08390e-07
 Reference value :  5.00000e-07
 Reference value :  5.00010e-07
 Reference value :  5.00030e-07
 Reference value :  5.00070e-07
 Reference value :  5.00100e-07
 Reference value :  5.00104e-07
 Reference value :  5.00113e-07
 Reference value :  5.00130e-07
 Reference value :  5.00163e-07
 Reference value :  5.00231e-07
 Reference value :  5.00366e-07
 Reference value :  5.00553e-07
 Reference value :  5.00928e-07
 Reference value :  5.01510e-07
 Reference value :  5.02044e-07
 Reference value :  5.02634e-07
 Reference value :  5.03265e-07
 Reference value :  5.03994e-07
 Reference value :  5.04754e-07
 Reference value :  5.05526e-07
 Reference value :  5.06579e-07
 Reference value :  5.07601e-07
 Reference value :  5.09521e-07
 Reference value :  5.12197e-07
 Reference value :  5.14045e-07
 Reference value :  5.16144e-07
 Reference value :  5.18401e-07
 Reference value :  5.20800e-07
 Reference value :  5.23490e-07
 Reference value :  5.28104e-07
 Reference value :  5.34621e-07
 Reference value :  5.45745e-07
 Reference value :  5.65045e-07
 Reference value :  5.97566e-07
 Reference value :  6.56758e-07
 Reference value :  7.50100e-07
 Reference value :  7.50110e-07
 Reference value :  7.50130e-07
 Reference value :  7.50170e-07
 Reference value :  7.50200e-07
 Reference value :  7.50201e-07
 Reference value :  7.50202e-07
 Reference value :  7.50205e-07
 Reference value :  7.50211e-07
 Reference value :  7.50223e-07
 Reference value :  7.50247e-07
 Reference value :  7.50295e-07
 Reference value :  7.50390e-07
 Reference value :  7.50580e-07
 Reference value :  7.50954e-07
 Reference value :  7.51429e-07
 Reference value :  7.51992e-07
 Reference value :  7.52594e-07
 Reference value :  7.53250e-07
 Reference value :  7.54107e-07
 Reference value :  7.54726e-07
 Reference value :  7.55452e-07
 Reference value :  7.56124e-07
 Reference value :  7.56857e-07
 Reference value :  7.57772e-07
 Reference value :  7.58768e-07
 Reference value :  7.59802e-07
 Reference value :  7.61314e-07
 Reference value :  7.62891e-07
 Reference value :  7.65198e-07
 Reference value :  7.67924e-07
 Reference value :  7.72119e-07
 Reference value :  7.80510e-07
 Reference value :  7.93173e-07
 Reference value :  8.18500e-07
 Reference value :  8.69154e-07
 Reference value :  9.70461e-07
 Reference value :  1.00000e-06
 Reference value :  1.00001e-06
 Reference value :  1.00003e-06
 Reference value :  1.00007e-06
 Reference value :  1.00010e-06
 Reference value :  1.00010e-06
 Reference value :  1.00011e-06
 Reference value :  1.00013e-06
 Reference value :  1.00016e-06
 Reference value :  1.00023e-06
 Reference value :  1.00037e-06
 Reference value :  1.00055e-06
 Reference value :  1.00093e-06
 Reference value :  1.00151e-06
 Reference value :  1.00204e-06
 Reference value :  1.00261e-06
 Reference value :  1.00329e-06
 Reference value :  1.00408e-06
 Reference value :  1.00485e-06
 Reference value :  1.00553e-06
 Reference value :  1.00625e-06
 Reference value :  1.00697e-06
 Reference value :  1.00775e-06
 Reference value :  1.00854e-06
 Reference value :  1.00964e-06
 Reference value :  1.01105e-06
 Reference value :  1.01324e-06
 Reference value :  1.01472e-06
 Reference value :  1.01636e-06
 Reference value :  1.01801e-06
 Reference value :  1.01948e-06
 Reference value :  1.02068e-06
 Reference value :  1.02195e-06
 Reference value :  1.02334e-06
 Reference value :  1.02503e-06
 Reference value :  1.02664e-06
 Reference value :  1.02930e-06
 Reference value :  1.03249e-06
 Reference value :  1.03887e-06
 Reference value :  1.04963e-06
 Reference value :  1.06798e-06
 Reference value :  1.09726e-06
 Reference value :  1.15582e-06
 Reference value :  1.22008e-06
 Reference value :  1.25010e-06
 Reference value :  1.25011e-06
 Reference value :  1.25013e-06
 Reference value :  1.25017e-06
 Reference value :  1.25020e-06
 Reference value :  1.25020e-06
 Reference value :  1.25020e-06
 Reference value :  1.25021e-06
 Reference value :  1.25021e-06
 Reference value :  1.25022e-06
 Reference value :  1.25025e-06
 Reference value :  1.25029e-06
 Reference value :  1.25039e-06
 Reference value :  1.25057e-06
 Reference value :  1.25090e-06
 Reference value :  1.25140e-06
 Reference value :  1.25202e-06
 Reference value :  1.25261e-06
 Reference value :  1.25328e-06
 Reference value :  1.25410e-06
 Reference value :  1.25469e-06
 Reference value :  1.25538e-06
 Reference value :  1.25624e-06
 Reference value :  1.25710e-06
 Reference value :  1.25818e-06
 Reference value :  1.26019e-06
 Reference value :  1.26207e-06
 Reference value :  1.26517e-06
 Reference value :  1.26900e-06
 Reference value :  1.27664e-06
 Reference value :  1.29194e-06
 Reference value :  1.32253e-06
 Reference value :  1.38372e-06
 Reference value :  1.47480e-06
 Reference value :  1.50000e-06
 Reference value :  1.50001e-06
 Reference value :  1.50003e-06
 Reference value :  1.50007e-06
 Reference value :  1.50010e-06
 Reference value :  1.50010e-06
 Reference value :  1.50011e-06
 Reference value :  1.50013e-06
 Reference value :  1.50016e-06
 Reference value :  1.50023e-06
 Reference value :  1.50036e-06
 Reference value :  1.50054e-06
 Reference value :  1.50089e-06
 Reference value :  1.50139e-06
 Reference value :  1.50190e-06
 Reference value :  1.50240e-06
 Reference value :  1.50303e-06
 Reference value :  1.50367e-06
 Reference value :  1.50454e-06
 Reference value :  1.50534e-06
 Reference value :  1.50630e-06
 Reference value :  1.50761e-06
 Reference value :  1.50906e-06
 Reference value :  1.51046e-06
 Reference value :  1.51189e-06
 Reference value :  1.51320e-06
 Reference value :  1.51463e-06
 Reference value :  1.51604e-06
 Reference value :  1.51769e-06
 Reference value :  1.52098e-06
 Reference value :  1.52620e-06
 Reference value :  1.53662e-06
 Reference value :  1.55748e-06
 Reference value :  1.59920e-06
 Reference value :  1.68263e-06
 Reference value :  1.75010e-06
 Reference value :  1.75011e-06
 Reference value :  1.75013e-06
 Reference value :  1.75017e-06
 Reference value :  1.75020e-06
 Reference value :  1.75020e-06
 Reference value :  1.75020e-06
 Reference value :  1.75021e-06
 Reference value :  1.75021e-06
 Reference value :  1.75022e-06
 Reference value :  1.75025e-06
 Reference value :  1.75029e-06
 Reference value :  1.75039e-06
 Reference value :  1.75058e-06
 Reference value :  1.75091e-06
 Reference value :  1.75141e-06
 Reference value :  1.75204e-06
 Reference value :  1.75262e-06
 Reference value :  1.75330e-06
 Reference value :  1.75415e-06
 Reference value :  1.75475e-06
 Reference value :  1.75545e-06
 Reference value :  1.75614e-06
 Reference value :  1.75688e-06
 Reference value :  1.75783e-06
 Reference value :  1.75886e-06
 Reference value :  1.76004e-06
 Reference value :  1.76145e-06
 Reference value :  1.76352e-06
 Reference value :  1.76557e-06
 Reference value :  1.76912e-06
 Reference value :  1.77359e-06
 Reference value :  1.78255e-06
 Reference value :  1.80047e-06
 Reference value :  1.83630e-06
 Reference value :  1.90796e-06
 Reference value :  2.00000e-06
 Reference value :  2.00001e-06
 Reference value :  2.00003e-06
 Reference value :  2.00007e-06
 Reference value :  2.00010e-06
 Reference value :  2.00010e-06
 Reference value :  2.00011e-06
 Reference value :  2.00013e-06
 Reference value :  2.00016e-06
 Reference value :  2.00023e-06
 Reference value :  2.00036e-06
 Reference value :  2.00054e-06
 Reference value :  2.00089e-06
 Reference value :  2.00139e-06
 Reference value :  2.00190e-06
 Reference value :  2.00243e-06
 Reference value :  2.00309e-06
 Reference value :  2.00375e-06
 Reference value :  2.00452e-06
 Reference value :  2.00515e-06
 Reference value :  2.00584e-06
 Reference value :  2.00653e-06
 Reference value :  2.00722e-06
 Reference value :  2.00797e-06
 Reference value :  2.00886e-06
 Reference value :  2.00987e-06
 Reference value :  2.01149e-06
 Reference value :  2.01377e-06
 Reference value :  2.01531e-06
 Reference value :  2.01704e-06
 Reference value :  2.01869e-06
 Reference value :  2.01993e-06
 Reference value :  2.02110e-06
 Reference value :  2.02219e-06
 Reference value :  2.02345e-06
 Reference value :  2.02498e-06
 Reference value :  2.02645e-06
 Reference value :  2.02900e-06
 Reference value :  2.03202e-06
 Reference value :  2.03806e-06
 Reference value :  2.04800e-06
 Reference value :  2.06089e-06
 Reference value :  2.08516e-06
 Reference value :  2.12467e-06
 Reference value :  2.17885e-06
 Reference value :  2.25010e-06
 Reference value :  2.25011e-06
 Reference value :  2.25013e-06
 Reference value :  2.25017e-06
 Reference value :  2.25020e-06
 Reference value :  2.25020e-06
 Reference value :  2.25020e-06
 Reference value :  2.25021e-06
 Reference value :  2.25021e-06
 Reference value :  2.25022e-06
 Reference value :  2.25025e-06
 Reference value :  2.25029e-06
 Reference value :  2.25039e-06
 Reference value :  2.25058e-06
 Reference value :  2.25091e-06
 Reference value :  2.25141e-06
 Reference value :  2.25198e-06
 Reference value :  2.25258e-06
 Reference value :  2.25323e-06
 Reference value :  2.25406e-06
 Reference value :  2.25466e-06
 Reference value :  2.25536e-06
 Reference value :  2.25618e-06
 Reference value :  2.25701e-06
 Reference value :  2.25810e-06
 Reference value :  2.25989e-06
 Reference value :  2.26181e-06
 Reference value :  2.26466e-06
 Reference value :  2.26849e-06
 Reference value :  2.27616e-06
 Reference value :  2.29149e-06
 Reference value :  2.32215e-06
 Reference value :  2.37504e-06
 Reference value :  2.43190e-06
 Reference value :  2.49545e-06
 Reference value :  2.50000e-06
 Reference value :  2.50001e-06
 Reference value :  2.50003e-06
 Reference value :  2.50007e-06
 Reference value :  2.50010e-06
 Reference value :  2.50010e-06
 Reference value :  2.50011e-06
 Reference value :  2.50013e-06
 Reference value :  2.50016e-06
 Reference value :  2.50023e-06
 Reference value :  2.50037e-06
 Reference value :  2.50054e-06
 Reference value :  2.50090e-06
 Reference value :  2.50140e-06
 Reference value :  2.50191e-06
 Reference value :  2.50242e-06
 Reference value :  2.50304e-06
 Reference value :  2.50370e-06
 Reference value :  2.50456e-06
 Reference value :  2.50537e-06
 Reference value :  2.50631e-06
 Reference value :  2.50761e-06
 Reference value :  2.50906e-06
 Reference value :  2.51042e-06
 Reference value :  2.51187e-06
 Reference value :  2.51318e-06
 Reference value :  2.51460e-06
 Reference value :  2.51600e-06
 Reference value :  2.51764e-06
 Reference value :  2.52093e-06
 Reference value :  2.52591e-06
 Reference value :  2.53587e-06
 Reference value :  2.55579e-06
 Reference value :  2.59562e-06
 Reference value :  2.67528e-06
 Reference value :  2.75010e-06
 Reference value :  2.75011e-06
 Reference value :  2.75013e-06
 Reference value :  2.75017e-06
 Reference value :  2.75020e-06
 Reference value :  2.75020e-06
 Reference value :  2.75020e-06
 Reference value :  2.75021e-06
 Reference value :  2.75021e-06
 Reference value :  2.75022e-06
 Reference value :  2.75025e-06
 Reference value :  2.75029e-06
 Reference value :  2.75039e-06
 Reference value :  2.75058e-06
 Reference value :  2.75091e-06
 Reference value :  2.75140e-06
 Reference value :  2.75198e-06
 Reference value :  2.75258e-06
 Reference value :  2.75323e-06
 Reference value :  2.75407e-06
 Reference value :  2.75468e-06
 Reference value :  2.75540e-06
 Reference value :  2.75605e-06
 Reference value :  2.75677e-06
 Reference value :  2.75767e-06
 Reference value :  2.75867e-06
 Reference value :  2.75969e-06
 Reference value :  2.76119e-06
 Reference value :  2.76285e-06
 Reference value :  2.76513e-06
 Reference value :  2.76796e-06
 Reference value :  2.77219e-06
 Reference value :  2.78064e-06
 Reference value :  2.79683e-06
 Reference value :  2.82919e-06
 Reference value :  2.89393e-06
 Reference value :  3.00000e-06
 Reference value :  3.00001e-06
 Reference value :  3.00003e-06
 Reference value :  3.00007e-06
 Reference value :  3.00010e-06
 Reference value :  3.00010e-06
 Reference value :  3.00011e-06
 Reference value :  3.00013e-06
 Reference value :  3.00016e-06
 Reference value :  3.00023e-06
 Reference value :  3.00036e-06
 Reference value :  3.00054e-06
 Reference value :  3.00089e-06
 Reference value :  3.00139e-06
 Reference value :  3.00190e-06
 Reference value :  3.00243e-06
 Reference value :  3.00309e-06
 Reference value :  3.00375e-06
 Reference value :  3.00452e-06
 Reference value :  3.00515e-06
 Reference value :  3.00584e-06
 Reference value :  3.00654e-06
 Reference value :  3.00723e-06
 Reference value :  3.00797e-06
 Reference value :  3.00888e-06
 Reference value :  3.00988e-06
 Reference value :  3.01154e-06
 Reference value :  3.01316e-06
 Reference value :  3.01461e-06
 Reference value :  3.01612e-06
 Reference value :  3.01769e-06
 Reference value :  3.01889e-06
 Reference value :  3.02006e-06
 Reference value :  3.02151e-06
 Reference value :  3.02289e-06
 Reference value :  3.02420e-06
 Reference value :  3.02586e-06
 Reference value :  3.02805e-06
 Reference value :  3.03033e-06
 Reference value :  3.03433e-06
 Reference value :  3.04001e-06
 Reference value :  3.04915e-06
 Reference value :  3.06431e-06
 Reference value :  3.08802e-06
 Reference value :  3.11069e-06
 Reference value :  3.14925e-06
 Reference value :  3.18561e-06
 Reference value :  3.21402e-06
 Reference value :  3.23796e-06
 Reference value :  3.25010e-06
 Reference value :  3.25011e-06
 Reference value :  3.25013e-06
 Reference value :  3.25017e-06
 Reference value :  3.25020e-06
 Reference value :  3.25020e-06
 Reference value :  3.25020e-06
 Reference value :  3.25021e-06
 Reference value :  3.25021e-06
 Reference value :  3.25022e-06
 Reference value :  3.25025e-06
 Reference value :  3.25029e-06
 Reference value :  3.25039e-06
 Reference value :  3.25058e-06
 Reference value :  3.25091e-06
 Reference value :  3.25140e-06
 Reference value :  3.25198e-06
 Reference value :  3.25258e-06
 Reference value :  3.25323e-06
 Reference value :  3.25406e-06
 Reference value :  3.25466e-06
 Reference value :  3.25536e-06
 Reference value :  3.25618e-06
 Reference value :  3.25701e-06
 Reference value :  3.25809e-06
 Reference value :  3.25989e-06
 Reference value :  3.26181e-06
 Reference value :  3.26465e-06
 Reference value :  3.26849e-06
 Reference value :  3.27615e-06
 Reference value :  3.29149e-06
 Reference value :  3.32216e-06
 Reference value :  3.38351e-06
 Reference value :  3.44852e-06
 Reference value :  3.50000e-06
 Reference value :  3.50001e-06
 Reference value :  3.50003e-06
 Reference value :  3.50007e-06
 Reference value :  3.50010e-06
 Reference value :  3.50010e-06
 Reference value :  3.50011e-06
 Reference value :  3.50013e-06
 Reference value :  3.50016e-06
 Reference value :  3.50023e-06
 Reference value :  3.50036e-06
 Reference value :  3.50054e-06
 Reference value :  3.50089e-06
 Reference value :  3.50139e-06
 Reference value :  3.50190e-06
 Reference value :  3.50240e-06
 Reference value :  3.50303e-06
 Reference value :  3.50367e-06
 Reference value :  3.50445e-06
 Reference value :  3.50524e-06
 Reference value :  3.50610e-06
 Reference value :  3.50727e-06
 Reference value :  3.50867e-06
 Reference value :  3.50981e-06
 Reference value :  3.51100e-06
 Reference value :  3.51245e-06
 Reference value :  3.51401e-06
 Reference value :  3.51560e-06
 Reference value :  3.51756e-06
 Reference value :  3.52063e-06
 Reference value :  3.52536e-06
 Reference value :  3.53387e-06
 Reference value :  3.54945e-06
 Reference value :  3.57813e-06
 Reference value :  3.63356e-06
 Reference value :  3.73815e-06
 Reference value :  3.75010e-06
 Reference value :  3.75011e-06
 Reference value :  3.75013e-06
 Reference value :  3.75017e-06
 Reference value :  3.75020e-06
 Reference value :  3.75020e-06
 Reference value :  3.75020e-06
 Reference value :  3.75021e-06
 Reference value :  3.75021e-06
 Reference value :  3.75022e-06
 Reference value :  3.75025e-06
 Reference value :  3.75029e-06
 Reference value :  3.75039e-06
 Reference value :  3.75057e-06
 Reference value :  3.75090e-06
 Reference value :  3.75139e-06
 Reference value :  3.75202e-06
 Reference value :  3.75260e-06
 Reference value :  3.75328e-06
 Reference value :  3.75413e-06
 Reference value :  3.75473e-06
 Reference value :  3.75543e-06
 Reference value :  3.75612e-06
 Reference value :  3.75684e-06
 Reference value :  3.75779e-06
 Reference value :  3.75882e-06
 Reference value :  3.75996e-06
 Reference value :  3.76139e-06
 Reference value :  3.76335e-06
 Reference value :  3.76544e-06
 Reference value :  3.76881e-06
 Reference value :  3.77321e-06
 Reference value :  3.78201e-06
 Reference value :  3.79960e-06
 Reference value :  3.83478e-06
 Reference value :  3.90515e-06
 Reference value :  4.00000e-06
 Reference value :  4.00001e-06
 Reference value :  4.00003e-06
 Reference value :  4.00007e-06
 Reference value :  4.00010e-06
 Reference value :  4.00010e-06
 Reference value :  4.00011e-06
 Reference value :  4.00013e-06
 Reference value :  4.00016e-06
 Reference value :  4.00023e-06
 Reference value :  4.00036e-06
 Reference value :  4.00054e-06
 Reference value :  4.00089e-06
 Reference value :  4.00139e-06
 Reference value :  4.00190e-06
 Reference value :  4.00243e-06
 Reference value :  4.00309e-06
 Reference value :  4.00375e-06
 Reference value :  4.00451e-06
 Reference value :  4.00515e-06
 Reference value :  4.00584e-06
 Reference value :  4.00653e-06
 Reference value :  4.00720e-06
 Reference value :  4.00793e-06
 Reference value :  4.00887e-06
 Reference value :  4.00985e-06
 Reference value :  4.01132e-06
 Reference value :  4.01253e-06
 Reference value :  4.01382e-06
 Reference value :  4.01514e-06
 Reference value :  4.01658e-06
 Reference value :  4.01797e-06
 Reference value :  4.01900e-06
 Reference value :  4.02005e-06
 Reference value :  4.02127e-06
 Reference value :  4.02243e-06
 Reference value :  4.02364e-06
 Reference value :  4.02504e-06
 Reference value :  4.02698e-06
 Reference value :  4.02909e-06
 Reference value :  4.03253e-06
 Reference value :  4.03741e-06
 Reference value :  4.04189e-06
 Reference value :  4.04661e-06
 Reference value :  4.04997e-06
 Reference value :  4.05281e-06
 Reference value :  4.05563e-06
 Reference value :  4.05873e-06
 Reference value :  4.06205e-06
 Reference value :  4.06733e-06
 Reference value :  4.07398e-06
 Reference value :  4.08496e-06
 Reference value :  4.10206e-06
 Reference value :  4.11827e-06
 Reference value :  4.13729e-06
 Reference value :  4.15717e-06
 Reference value :  4.18701e-06
 Reference value :  4.22659e-06
 Reference value :  4.25010e-06
 Reference value :  4.25011e-06
 Reference value :  4.25013e-06
 Reference value :  4.25017e-06
 Reference value :  4.25020e-06
 Reference value :  4.25020e-06
 Reference value :  4.25020e-06
 Reference value :  4.25021e-06
 Reference value :  4.25021e-06
 Reference value :  4.25022e-06
 Reference value :  4.25025e-06
 Reference value :  4.25029e-06
 Reference value :  4.25039e-06
 Reference value :  4.25057e-06
 Reference value :  4.25090e-06
 Reference value :  4.25139e-06
 Reference value :  4.25202e-06
 Reference value :  4.25260e-06
 Reference value :  4.25328e-06
 Reference value :  4.25412e-06
 Reference value :  4.25473e-06
 Reference value :  4.25544e-06
 Reference value :  4.25636e-06
 Reference value :  4.25721e-06
 Reference value :  4.25833e-06
 Reference value :  4.26035e-06
 Reference value :  4.26227e-06
 Reference value :  4.26551e-06
 Reference value :  4.26944e-06
 Reference value :  4.27731e-06
 Reference value :  4.29305e-06
 Reference value :  4.32452e-06
 Reference value :  4.38747e-06
 Reference value :  4.50000e-06
 Reference value :  4.50001e-06
 Reference value :  4.50003e-06
 Reference value :  4.50007e-06
 Reference value :  4.50010e-06
 Reference value :  4.50010e-06
 Reference value :  4.50011e-06
 Reference value :  4.50013e-06
 Reference value :  4.50016e-06
 Reference value :  4.50023e-06
 Reference value :  4.50037e-06
 Reference value :  4.50054e-06
 Reference value :  4.50090e-06
 Reference value :  4.50139e-06
 Reference value :  4.50191e-06
 Reference value :  4.50245e-06
 Reference value :  4.50311e-06
 Reference value :  4.50377e-06
 Reference value :  4.50451e-06
 Reference value :  4.50536e-06
 Reference value :  4.50619e-06
 Reference value :  4.50732e-06
 Reference value :  4.50870e-06
 Reference value :  4.50995e-06
 Reference value :  4.51122e-06
 Reference value :  4.51239e-06
 Reference value :  4.51372e-06
 Reference value :  4.51505e-06
 Reference value :  4.51658e-06
 Reference value :  4.51964e-06
 Reference value :  4.52535e-06
 Reference value :  4.53644e-06
 Reference value :  4.55862e-06
 Reference value :  4.60298e-06
 Reference value :  4.69171e-06
 Reference value :  4.75010e-06
 Reference value :  4.75011e-06
 Reference value :  4.75013e-06
 Reference value :  4.75017e-06
 Reference value :  4.75020e-06
 Reference value :  4.75020e-06
 Reference value :  4.75020e-06
 Reference value :  4.75021e-06
 Reference value :  4.75021e-06
 Reference value :  4.75022e-06
 Reference value :  4.75025e-06
 Reference value :  4.75029e-06
 Reference value :  4.75039e-06
 Reference value :  4.75058e-06
 Reference value :  4.75091e-06
 Reference value :  4.75140e-06
 Reference value :  4.75204e-06
 Reference value :  4.75261e-06
 Reference value :  4.75330e-06
 Reference value :  4.75414e-06
 Reference value :  4.75475e-06
 Reference value :  4.75545e-06
 Reference value :  4.75614e-06
 Reference value :  4.75687e-06
 Reference value :  4.75782e-06
 Reference value :  4.75887e-06
 Reference value :  4.76097e-06
 Reference value :  4.76315e-06
 Reference value :  4.76694e-06
 Reference value :  4.77179e-06
 Reference value :  4.78149e-06
 Reference value :  4.80090e-06
 Reference value :  4.83971e-06
 Reference value :  4.91734e-06
 Reference value :  5.00000e-06
 Reference value :  5.00001e-06
 Reference value :  5.00003e-06
 Reference value :  5.00007e-06
 Reference value :  5.00010e-06
 Reference value :  5.00010e-06
 Reference value :  5.00011e-06
 Reference value :  5.00013e-06
 Reference value :  5.00016e-06
 Reference value :  5.00023e-06
 Reference value :  5.00036e-06
 Reference value :  5.00054e-06
 Reference value :  5.00089e-06
 Reference value :  5.00138e-06
 Reference value :  5.00189e-06
 Reference value :  5.00243e-06
 Reference value :  5.00309e-06
 Reference value :  5.00375e-06
 Reference value :  5.00452e-06
 Reference value :  5.00518e-06
 Reference value :  5.00589e-06
 Reference value :  5.00676e-06
 Reference value :  5.00755e-06
 Reference value :  5.00839e-06
 Reference value :  5.00956e-06
 Reference value :  5.01076e-06
 Reference value :  5.01294e-06
 Reference value :  5.01553e-06
 Reference value :  5.01747e-06
 Reference value :  5.01913e-06
 Reference value :  5.02072e-06
 Reference value :  5.02236e-06
 Reference value :  5.02401e-06
 Reference value :  5.02583e-06
 Reference value :  5.02779e-06
 Reference value :  5.03055e-06
 Reference value :  5.03419e-06
 Reference value :  5.04147e-06
 Reference value :  5.05271e-06
 Reference value :  5.06636e-06
 Reference value :  5.08101e-06
 Reference value :  5.10130e-06
 Reference value :  5.12644e-06
 Reference value :  5.16591e-06
 Reference value :  5.23461e-06
 Reference value :  5.25010e-06
 Reference value :  5.25011e-06
 Reference value :  5.25013e-06
 Reference value :  5.25017e-06
 Reference value :  5.25020e-06
 Reference value :  5.25020e-06
 Reference value :  5.25020e-06
 Reference value :  5.25021e-06
 Reference value :  5.25021e-06
 Reference value :  5.25022e-06
 Reference value :  5.25025e-06
 Reference value :  5.25029e-06
 Reference value :  5.25039e-06
 Reference value :  5.25058e-06
 Reference value :  5.25091e-06
 Reference value :  5.25140e-06
 Reference value :  5.25203e-06
 Reference value :  5.25261e-06
 Reference value :  5.25330e-06
 Reference value :  5.25414e-06
 Reference value :  5.25475e-06
 Reference value :  5.25546e-06
 Reference value :  5.25635e-06
 Reference value :  5.25726e-06
 Reference value :  5.25834e-06
 Reference value :  5.26026e-06
 Reference value :  5.26223e-06
 Reference value :  5.26543e-06
 Reference value :  5.26940e-06
 Reference value :  5.27733e-06
 Reference value :  5.29319e-06
 Reference value :  5.32491e-06
 Reference value :  5.38836e-06
 Reference value :  5.50000e-06
 Reference value :  5.50001e-06
 Reference value :  5.50003e-06
 Reference value :  5.50007e-06
 Reference value :  5.50010e-06
 Reference value :  5.50010e-06
 Reference value :  5.50011e-06
 Reference value :  5.50013e-06
 Reference value :  5.50016e-06
 Reference value :  5.50023e-06
 Reference value :  5.50037e-06
 Reference value :  5.50054e-06
 Reference value :  5.50090e-06
 Reference value :  5.50139e-06
 Reference value :  5.50191e-06
 Reference value :  5.50245e-06
 Reference value :  5.50311e-06
 Reference value :  5.50378e-06
 Reference value :  5.50453e-06
 Reference value :  5.50541e-06
 Reference value :  5.50623e-06
 Reference value :  5.50752e-06
 Reference value :  5.50886e-06
 Reference value :  5.51008e-06
 Reference value :  5.51154e-06
 Reference value :  5.51303e-06
 Reference value :  5.51438e-06
 Reference value :  5.51599e-06
 Reference value :  5.51777e-06
 Reference value :  5.52071e-06
 Reference value :  5.52515e-06
 Reference value :  5.53303e-06
 Reference value :  5.54762e-06
 Reference value :  5.57416e-06
 Reference value :  5.62545e-06
 Reference value :  5.72802e-06
 Reference value :  5.75010e-06
 Reference value :  5.75011e-06
 Reference value :  5.75013e-06
 Reference value :  5.75017e-06
 Reference value :  5.75020e-06
 Reference value :  5.75020e-06
 Reference value :  5.75020e-06
 Reference value :  5.75021e-06
 Reference value :  5.75021e-06
 Reference value :  5.75022e-06
 Reference value :  5.75025e-06
 Reference value :  5.75029e-06
 Reference value :  5.75039e-06
 Reference value :  5.75057e-06
 Reference value :  5.75090e-06
 Reference value :  5.75139e-06
 Reference value :  5.75202e-06
 Reference value :  5.75260e-06
 Reference value :  5.75327e-06
 Reference value :  5.75412e-06
 Reference value :  5.75472e-06
 Reference value :  5.75542e-06
 Reference value :  5.75610e-06
 Reference value :  5.75683e-06
 Reference value :  5.75776e-06
 Reference value :  5.75880e-06
 Reference value :  5.76087e-06
 Reference value :  5.76301e-06
 Reference value :  5.76673e-06
 Reference value :  5.77139e-06
 Reference value :  5.78070e-06
 Reference value :  5.79932e-06
 Reference value :  5.83657e-06
 Reference value :  5.91107e-06
 Reference value :  6.00000e-06
 Reference value :  6.00001e-06
 Reference value :  6.00003e-06
 Reference value :  6.00007e-06
 Reference value :  6.00010e-06
 Reference value :  6.00010e-06
 Reference value :  6.00011e-06
 Reference value :  6.00013e-06
 Reference value :  6.00016e-06
 Reference value :  6.00023e-06
 Reference value :  6.00036e-06
 Reference value :  6.00054e-06
 Reference value :  6.00089e-06
 Reference value :  6.00139e-06
 Reference value :  6.00190e-06
 Reference value :  6.00243e-06
 Reference value :  6.00310e-06
 Reference value :  6.00375e-06
 Reference value :  6.00453e-06
 Reference value :  6.00519e-06
 Reference value :  6.00590e-06
 Reference value :  6.00668e-06
 Reference value :  6.00744e-06
 Reference value :  6.00827e-06
 Reference value :  6.00942e-06
 Reference value :  6.01067e-06
 Reference value :  6.01277e-06
 Reference value :  6.01535e-06
 Reference value :  6.01727e-06
 Reference value :  6.01939e-06
 Reference value :  6.02101e-06
 Reference value :  6.02279e-06
 Reference value :  6.02456e-06
 Reference value :  6.02648e-06
 Reference value :  6.02861e-06
 Reference value :  6.03102e-06
 Reference value :  6.03459e-06
 Reference value :  6.03940e-06
 Reference value :  6.04684e-06
 Reference value :  6.05607e-06
 Reference value :  6.06572e-06
 Reference value :  6.08126e-06
 Reference value :  6.10255e-06
 Reference value :  6.14515e-06
 Reference value :  6.23033e-06
 Reference value :  6.25010e-06
 Reference value :  6.25011e-06
 Reference value :  6.25013e-06
 Reference value :  6.25017e-06
 Reference value :  6.25020e-06
 Reference value :  6.25020e-06
 Reference value :  6.25020e-06
 Reference value :  6.25021e-06
 Reference value :  6.25021e-06
 Reference value :  6.25022e-06
 Reference value :  6.25025e-06
 Reference value :  6.25029e-06
 Reference value :  6.25039e-06
 Reference value :  6.25058e-06
 Reference value :  6.25091e-06
 Reference value :  6.25140e-06
 Reference value :  6.25204e-06
 Reference value :  6.25261e-06
 Reference value :  6.25330e-06
 Reference value :  6.25414e-06
 Reference value :  6.25475e-06
 Reference value :  6.25545e-06
 Reference value :  6.25636e-06
 Reference value :  6.25725e-06
 Reference value :  6.25834e-06
 Reference value :  6.26046e-06
 Reference value :  6.26239e-06
 Reference value :  6.26573e-06
 Reference value :  6.26970e-06
 Reference value :  6.27764e-06
 Reference value :  6.29350e-06
 Reference value :  6.32524e-06
 Reference value :  6.38871e-06
 Reference value :  6.50000e-06
 Reference value :  6.50001e-06
 Reference value :  6.50003e-06
 Reference value :  6.50007e-06
 Reference value :  6.50010e-06
 Reference value :  6.50010e-06
 Reference value :  6.50011e-06
 Reference value :  6.50013e-06
 Reference value :  6.50016e-06
 Reference value :  6.50023e-06
 Reference value :  6.50037e-06
 Reference value :  6.50054e-06
 Reference value :  6.50090e-06
 Reference value :  6.50139e-06
 Reference value :  6.50191e-06
 Reference value :  6.50245e-06
 Reference value :  6.50311e-06
 Reference value :  6.50378e-06
 Reference value :  6.50453e-06
 Reference value :  6.50538e-06
 Reference value :  6.50621e-06
 Reference value :  6.50735e-06
 Reference value :  6.50873e-06
 Reference value :  6.50992e-06
 Reference value :  6.51116e-06
 Reference value :  6.51229e-06
 Reference value :  6.51360e-06
 Reference value :  6.51491e-06
 Reference value :  6.51642e-06
 Reference value :  6.51943e-06
 Reference value :  6.52546e-06
 Reference value :  6.53618e-06
 Reference value :  6.55763e-06
 Reference value :  6.60052e-06
 Reference value :  6.68631e-06
 Reference value :  6.75010e-06
 Reference value :  6.75011e-06
 Reference value :  6.75013e-06
 Reference value :  6.75017e-06
 Reference value :  6.75020e-06
 Reference value :  6.75020e-06
 Reference value :  6.75020e-06
 Reference value :  6.75021e-06
 Reference value :  6.75021e-06
 Reference value :  6.75022e-06
 Reference value :  6.75025e-06
 Reference value :  6.75029e-06
 Reference value :  6.75039e-06
 Reference value :  6.75058e-06
 Reference value :  6.75091e-06
 Reference value :  6.75141e-06
 Reference value :  6.75204e-06
 Reference value :  6.75262e-06
 Reference value :  6.75330e-06
 Reference value :  6.75414e-06
 Reference value :  6.75475e-06
 Reference value :  6.75544e-06
 Reference value :  6.75613e-06
 Reference value :  6.75686e-06
 Reference value :  6.75781e-06
 Reference value :  6.75887e-06
 Reference value :  6.76098e-06
 Reference value :  6.76315e-06
 Reference value :  6.76694e-06
 Reference value :  6.77179e-06
 Reference value :  6.78147e-06
 Reference value :  6.80084e-06
 Reference value :  6.83959e-06
 Reference value :  6.91707e-06
 Reference value :  7.00000e-06
 Reference value :  7.00001e-06
 Reference value :  7.00003e-06
 Reference value :  7.00007e-06
 Reference value :  7.00010e-06
 Reference value :  7.00010e-06
 Reference value :  7.00011e-06
 Reference value :  7.00013e-06
 Reference value :  7.00016e-06
 Reference value :  7.00023e-06
 Reference value :  7.00036e-06
 Reference value :  7.00054e-06
 Reference value :  7.00089e-06
 Reference value :  7.00139e-06
 Reference value :  7.00190e-06
 Reference value :  7.00243e-06
 Reference value :  7.00310e-06
 Reference value :  7.00375e-06
 Reference value :  7.00453e-06
 Reference value :  7.00519e-06
 Reference value :  7.00590e-06
 Reference value :  7.00670e-06
 Reference value :  7.00746e-06
 Reference value :  7.00829e-06
 Reference value :  7.00952e-06
 Reference value :  7.01070e-06
 Reference value :  7.01288e-06
 Reference value :  7.01546e-06
 Reference value :  7.01740e-06
 Reference value :  7.01954e-06
 Reference value :  7.02110e-06
 Reference value :  7.02278e-06
 Reference value :  7.02454e-06
 Reference value :  7.02640e-06
 Reference value :  7.02845e-06
 Reference value :  7.03089e-06
 Reference value :  7.03445e-06
 Reference value :  7.03958e-06
 Reference value :  7.04452e-06
 Reference value :  7.05297e-06
 Reference value :  7.06542e-06
 Reference value :  7.08144e-06
 Reference value :  7.09813e-06
 Reference value :  7.10976e-06
 Reference value :  7.12103e-06
 Reference value :  7.13823e-06
 Reference value :  7.15865e-06
 Reference value :  7.18100e-06
 Reference value :  7.20387e-06
 Reference value :  7.22900e-06
 Reference value :  7.25010e-06
 Reference value :  7.25011e-06
 Reference value :  7.25013e-06
 Reference value :  7.25017e-06
 Reference value :  7.25020e-06
 Reference value :  7.25020e-06
 Reference value :  7.25020e-06
 Reference value :  7.25021e-06
 Reference value :  7.25021e-06
 Reference value :  7.25022e-06
 Reference value :  7.25025e-06
 Reference value :  7.25029e-06
 Reference value :  7.25039e-06
 Reference value :  7.25057e-06
 Reference value :  7.25091e-06
 Reference value :  7.25140e-06
 Reference value :  7.25203e-06
 Reference value :  7.25261e-06
 Reference value :  7.25329e-06
 Reference value :  7.25413e-06
 Reference value :  7.25472e-06
 Reference value :  7.25540e-06
 Reference value :  7.25621e-06
 Reference value :  7.25725e-06
 Reference value :  7.25821e-06
 Reference value :  7.26012e-06
 Reference value :  7.26205e-06
 Reference value :  7.26517e-06
 Reference value :  7.26902e-06
 Reference value :  7.27674e-06
 Reference value :  7.29217e-06
 Reference value :  7.32302e-06
 Reference value :  7.38474e-06
 Reference value :  7.50000e-06
 Reference value :  7.50001e-06
 Reference value :  7.50003e-06
 Reference value :  7.50007e-06
 Reference value :  7.50010e-06
 Reference value :  7.50010e-06
 Reference value :  7.50011e-06
 Reference value :  7.50013e-06
 Reference value :  7.50016e-06
 Reference value :  7.50023e-06
 Reference value :  7.50037e-06
 Reference value :  7.50054e-06
 Reference value :  7.50090e-06
 Reference value :  7.50142e-06
 Reference value :  7.50194e-06
 Reference value :  7.50248e-06
 Reference value :  7.50310e-06
 Reference value :  7.50379e-06
 Reference value :  7.50457e-06
 Reference value :  7.50545e-06
 Reference value :  7.50635e-06
 Reference value :  7.50758e-06
 Reference value :  7.50890e-06
 Reference value :  7.51015e-06
 Reference value :  7.51142e-06
 Reference value :  7.51260e-06
 Reference value :  7.51393e-06
 Reference value :  7.51526e-06
 Reference value :  7.51679e-06
 Reference value :  7.51985e-06
 Reference value :  7.52561e-06
 Reference value :  7.53637e-06
 Reference value :  7.55790e-06
 Reference value :  7.60096e-06
 Reference value :  7.68707e-06
 Reference value :  7.75010e-06
 Reference value :  7.75011e-06
 Reference value :  7.75013e-06
 Reference value :  7.75017e-06
 Reference value :  7.75020e-06
 Reference value :  7.75020e-06
 Reference value :  7.75020e-06
 Reference value :  7.75021e-06
 Reference value :  7.75021e-06
 Reference value :  7.75022e-06
 Reference value :  7.75025e-06
 Reference value :  7.75029e-06
 Reference value :  7.75039e-06
 Reference value :  7.75058e-06
 Reference value :  7.75092e-06
 Reference value :  7.75141e-06
 Reference value :  7.75198e-06
 Reference value :  7.75258e-06
 Reference value :  7.75322e-06
 Reference value :  7.75406e-06
 Reference value :  7.75467e-06
 Reference value :  7.75537e-06
 Reference value :  7.75603e-06
 Reference value :  7.75675e-06
 Reference value :  7.75766e-06
 Reference value :  7.75867e-06
 Reference value :  7.75969e-06
 Reference value :  7.76119e-06
 Reference value :  7.76286e-06
 Reference value :  7.76516e-06
 Reference value :  7.76802e-06
 Reference value :  7.77228e-06
 Reference value :  7.78081e-06
 Reference value :  7.79759e-06
 Reference value :  7.83115e-06
 Reference value :  7.89826e-06
 Reference value :  8.00000e-06
 Reference value :  8.00001e-06
 Reference value :  8.00003e-06
 Reference value :  8.00007e-06
 Reference value :  8.00010e-06
 Reference value :  8.00010e-06
 Reference value :  8.00011e-06
 Reference value :  8.00013e-06
 Reference value :  8.00016e-06
 Reference value :  8.00023e-06
 Reference value :  8.00036e-06
 Reference value :  8.00054e-06
 Reference value :  8.00090e-06
 Reference value :  8.00141e-06
 Reference value :  8.00193e-06
 Reference value :  8.00248e-06
 Reference value :  8.00314e-06
 Reference value :  8.00383e-06
 Reference value :  8.00461e-06
 Reference value :  8.00525e-06
 Reference value :  8.00594e-06
 Reference value :  8.00661e-06
 Reference value :  8.00738e-06
 Reference value :  8.00810e-06
 Reference value :  8.00920e-06
 Reference value :  8.01025e-06
 Reference value :  8.01192e-06
 Reference value :  8.01319e-06
 Reference value :  8.01454e-06
 Reference value :  8.01594e-06
 Reference value :  8.01750e-06
 Reference value :  8.01915e-06
 Reference value :  8.02133e-06
 Reference value :  8.02278e-06
 Reference value :  8.02477e-06
 Reference value :  8.02658e-06
 Reference value :  8.03021e-06
 Reference value :  8.03463e-06
 Reference value :  8.04347e-06
 Reference value :  8.05531e-06
 Reference value :  8.07689e-06
 Reference value :  8.09898e-06
 Reference value :  8.13045e-06
 Reference value :  8.15606e-06
 Reference value :  8.17185e-06
 Reference value :  8.18926e-06
 Reference value :  8.21183e-06
 Reference value :  8.24250e-06
 Reference value :  8.25010e-06
 Reference value :  8.25011e-06
 Reference value :  8.25013e-06
 Reference value :  8.25017e-06
 Reference value :  8.25020e-06
 Reference value :  8.25020e-06
 Reference value :  8.25020e-06
 Reference value :  8.25021e-06
 Reference value :  8.25021e-06
 Reference value :  8.25022e-06
 Reference value :  8.25025e-06
 Reference value :  8.25029e-06
 Reference value :  8.25039e-06
 Reference value :  8.25057e-06
 Reference value :  8.25095e-06
 Reference value :  8.25141e-06
 Reference value :  8.25198e-06
 Reference value :  8.25257e-06
 Reference value :  8.25321e-06
 Reference value :  8.25404e-06
 Reference value :  8.25495e-06
 Reference value :  8.25613e-06
 Reference value :  8.25753e-06
 Reference value :  8.25885e-06
 Reference value :  8.26111e-06
 Reference value :  8.26351e-06
 Reference value :  8.26729e-06
 Reference value :  8.27292e-06
 Reference value :  8.28418e-06
 Reference value :  8.30671e-06
 Reference value :  8.35150e-06
 Reference value :  8.44109e-06
 Reference value :  8.50000e-06
No. of Data Rows : 1306
ngspice-44 done
