
Note: Compatibility modes selected: hs a


Circuit: ** sch_path: /home/ece/cace/sar-adc-using-sky130-pdk/runs/run_2025-09-12_19-12-00/parameters/sndr/run_0/sndr_enob_fom.sch

option SCALE: Scale is set to 1e-06 for instance and model parameters
option SCALE: Scale is set to 1e-06 for instance and model parameters
option SCALE: Scale is set to 1e-06 for instance and model parameters
option SCALE: Scale is set to 1e-06 for instance and model parameters
Doing analysis at TEMP = 27.000000 and TNOM = 27.000000

Using KLU as Direct Linear Solver
Operating point simulation skipped by 'uic',
  now using transient initial conditions.
 Reference value :  1.00000e-12
 Reference value :  1.02772e-12
 Reference value :  1.08316e-12
 Reference value :  1.19404e-12
 Reference value :  1.33846e-12
 Reference value :  1.62729e-12
 Reference value :  2.20497e-12
 Reference value :  3.05936e-12
 Reference value :  3.96217e-12
 Reference value :  5.17539e-12
 Reference value :  6.89148e-12
 Reference value :  1.02421e-11
 Reference value :  1.40806e-11
 Reference value :  2.08936e-11
 Reference value :  2.76442e-11
 Reference value :  3.67235e-11
 Reference value :  4.80192e-11
 Reference value :  6.53751e-11
 Reference value :  8.58417e-11
 Reference value :  1.00000e-10
 Reference value :  1.01197e-10
 Reference value :  1.03591e-10
 Reference value :  1.08378e-10
 Reference value :  1.17953e-10
 Reference value :  1.37102e-10
 Reference value :  1.75401e-10
 Reference value :  2.52000e-10
 Reference value :  4.03999e-10
 Reference value :  5.64977e-10
 Reference value :  8.29835e-10
 Reference value :  1.17830e-09
 Reference value :  1.61732e-09
 Reference value :  2.25309e-09
 Reference value :  3.03406e-09
 Reference value :  3.86983e-09
 Reference value :  4.69785e-09
 Reference value :  5.56428e-09
 Reference value :  6.78844e-09
 Reference value :  8.02198e-09
 Reference value :  9.34150e-09
 Reference value :  1.02174e-08
 Reference value :  1.10389e-08
 Reference value :  1.19320e-08
 Reference value :  1.29055e-08
 Reference value :  1.47974e-08
 Reference value :  1.72855e-08
 Reference value :  2.07960e-08
 Reference value :  2.48189e-08
 Reference value :  2.81795e-08
 Reference value :  3.16340e-08
 Reference value :  3.45213e-08
 Reference value :  3.75547e-08
 Reference value :  4.15669e-08
 Reference value :  4.75243e-08
 Reference value :  5.71683e-08
 Reference value :  7.17095e-08
 Reference value :  9.96029e-08
 Reference value :  1.52809e-07
 Reference value :  2.16087e-07
 Reference value :  2.50100e-07
 Reference value :  2.50110e-07
 Reference value :  2.50130e-07
 Reference value :  2.50170e-07
 Reference value :  2.50200e-07
 Reference value :  2.50201e-07
 Reference value :  2.50202e-07
 Reference value :  2.50204e-07
 Reference value :  2.50208e-07
 Reference value :  2.50216e-07
 Reference value :  2.50233e-07
 Reference value :  2.50266e-07
 Reference value :  2.50332e-07
 Reference value :  2.50408e-07
 Reference value :  2.50559e-07
 Reference value :  2.50706e-07
 Reference value :  2.51000e-07
 Reference value :  2.51328e-07
 Reference value :  2.51814e-07
 Reference value :  2.52369e-07
 Reference value :  2.52973e-07
 Reference value :  2.53861e-07
 Reference value :  2.54730e-07
 Reference value :  2.55539e-07
 Reference value :  2.56397e-07
 Reference value :  2.57284e-07
 Reference value :  2.58159e-07
 Reference value :  2.59693e-07
 Reference value :  2.61760e-07
 Reference value :  2.63982e-07
 Reference value :  2.67676e-07
 Reference value :  2.73182e-07
 Reference value :  2.84194e-07
 Reference value :  3.06218e-07
 Reference value :  3.46181e-07
 Reference value :  4.26108e-07
 Reference value :  5.00000e-07
 Reference value :  5.00010e-07
 Reference value :  5.00030e-07
 Reference value :  5.00070e-07
 Reference value :  5.00100e-07
 Reference value :  5.00104e-07
 Reference value :  5.00113e-07
 Reference value :  5.00130e-07
 Reference value :  5.00163e-07
 Reference value :  5.00231e-07
 Reference value :  5.00366e-07
 Reference value :  5.00553e-07
 Reference value :  5.00927e-07
 Reference value :  5.01510e-07
 Reference value :  5.02040e-07
 Reference value :  5.02609e-07
 Reference value :  5.03288e-07
 Reference value :  5.04079e-07
 Reference value :  5.04828e-07
 Reference value :  5.05642e-07
 Reference value :  5.06668e-07
 Reference value :  5.07755e-07
 Reference value :  5.09486e-07
 Reference value :  5.12227e-07
 Reference value :  5.14062e-07
 Reference value :  5.16137e-07
 Reference value :  5.18338e-07
 Reference value :  5.20723e-07
 Reference value :  5.23450e-07
 Reference value :  5.27988e-07
 Reference value :  5.34634e-07
 Reference value :  5.45822e-07
 Reference value :  5.65435e-07
 Reference value :  5.98748e-07
 Reference value :  6.59305e-07
 Reference value :  7.50100e-07
 Reference value :  7.50110e-07
 Reference value :  7.50130e-07
 Reference value :  7.50170e-07
 Reference value :  7.50200e-07
 Reference value :  7.50201e-07
 Reference value :  7.50202e-07
 Reference value :  7.50205e-07
 Reference value :  7.50211e-07
 Reference value :  7.50223e-07
 Reference value :  7.50247e-07
 Reference value :  7.50295e-07
 Reference value :  7.50390e-07
 Reference value :  7.50580e-07
 Reference value :  7.50954e-07
 Reference value :  7.51429e-07
 Reference value :  7.51992e-07
 Reference value :  7.52594e-07
 Reference value :  7.53250e-07
 Reference value :  7.54105e-07
 Reference value :  7.54725e-07
 Reference value :  7.55452e-07
 Reference value :  7.56121e-07
 Reference value :  7.56853e-07
 Reference value :  7.57765e-07
 Reference value :  7.58760e-07
 Reference value :  7.60750e-07
 Reference value :  7.62908e-07
 Reference value :  7.66537e-07
 Reference value :  7.71134e-07
 Reference value :  7.80328e-07
 Reference value :  7.98715e-07
 Reference value :  8.35490e-07
 Reference value :  9.09039e-07
 Reference value :  1.00000e-06
 Reference value :  1.00001e-06
 Reference value :  1.00003e-06
 Reference value :  1.00007e-06
 Reference value :  1.00010e-06
 Reference value :  1.00010e-06
 Reference value :  1.00011e-06
 Reference value :  1.00013e-06
 Reference value :  1.00016e-06
 Reference value :  1.00023e-06
 Reference value :  1.00036e-06
 Reference value :  1.00055e-06
 Reference value :  1.00092e-06
 Reference value :  1.00145e-06
 Reference value :  1.00198e-06
 Reference value :  1.00255e-06
 Reference value :  1.00322e-06
 Reference value :  1.00397e-06
 Reference value :  1.00472e-06
 Reference value :  1.00541e-06
 Reference value :  1.00613e-06
 Reference value :  1.00694e-06
 Reference value :  1.00770e-06
 Reference value :  1.00853e-06
 Reference value :  1.00971e-06
 Reference value :  1.01103e-06
 Reference value :  1.01329e-06
 Reference value :  1.01571e-06
 Reference value :  1.01765e-06
 Reference value :  1.01939e-06
 Reference value :  1.02066e-06
 Reference value :  1.02205e-06
 Reference value :  1.02362e-06
 Reference value :  1.02517e-06
 Reference value :  1.02703e-06
 Reference value :  1.02974e-06
 Reference value :  1.03265e-06
 Reference value :  1.03626e-06
 Reference value :  1.03933e-06
 Reference value :  1.04252e-06
 Reference value :  1.04501e-06
 Reference value :  1.04823e-06
 Reference value :  1.05262e-06
 Reference value :  1.05561e-06
 Reference value :  1.05892e-06
 Reference value :  1.06255e-06
 Reference value :  1.06653e-06
 Reference value :  1.07253e-06
 Reference value :  1.07938e-06
 Reference value :  1.08557e-06
 Reference value :  1.09334e-06
 Reference value :  1.10216e-06
 Reference value :  1.11840e-06
 Reference value :  1.14337e-06
 Reference value :  1.18217e-06
 Reference value :  1.25010e-06
 Reference value :  1.25011e-06
 Reference value :  1.25013e-06
 Reference value :  1.25017e-06
 Reference value :  1.25020e-06
 Reference value :  1.25020e-06
 Reference value :  1.25020e-06
 Reference value :  1.25021e-06
 Reference value :  1.25021e-06
 Reference value :  1.25022e-06
 Reference value :  1.25025e-06
 Reference value :  1.25029e-06
 Reference value :  1.25039e-06
 Reference value :  1.25058e-06
 Reference value :  1.25091e-06
 Reference value :  1.25141e-06
 Reference value :  1.25204e-06
 Reference value :  1.25262e-06
 Reference value :  1.25330e-06
 Reference value :  1.25413e-06
 Reference value :  1.25472e-06
 Reference value :  1.25540e-06
 Reference value :  1.25624e-06
 Reference value :  1.25722e-06
 Reference value :  1.25822e-06
 Reference value :  1.26022e-06
 Reference value :  1.26213e-06
 Reference value :  1.26532e-06
 Reference value :  1.26917e-06
 Reference value :  1.27688e-06
 Reference value :  1.29231e-06
 Reference value :  1.32316e-06
 Reference value :  1.38485e-06
 Reference value :  1.50000e-06
 Reference value :  1.50001e-06
 Reference value :  1.50003e-06
 Reference value :  1.50007e-06
 Reference value :  1.50010e-06
 Reference value :  1.50010e-06
 Reference value :  1.50011e-06
 Reference value :  1.50013e-06
 Reference value :  1.50016e-06
 Reference value :  1.50023e-06
 Reference value :  1.50037e-06
 Reference value :  1.50054e-06
 Reference value :  1.50090e-06
 Reference value :  1.50140e-06
 Reference value :  1.50191e-06
 Reference value :  1.50242e-06
 Reference value :  1.50304e-06
 Reference value :  1.50370e-06
 Reference value :  1.50457e-06
 Reference value :  1.50537e-06
 Reference value :  1.50630e-06
 Reference value :  1.50760e-06
 Reference value :  1.50904e-06
 Reference value :  1.51043e-06
 Reference value :  1.51184e-06
 Reference value :  1.51314e-06
 Reference value :  1.51457e-06
 Reference value :  1.51599e-06
 Reference value :  1.51762e-06
 Reference value :  1.52090e-06
 Reference value :  1.52653e-06
 Reference value :  1.53729e-06
 Reference value :  1.55880e-06
 Reference value :  1.60182e-06
 Reference value :  1.68787e-06
 Reference value :  1.75010e-06
 Reference value :  1.75011e-06
 Reference value :  1.75013e-06
 Reference value :  1.75017e-06
 Reference value :  1.75020e-06
 Reference value :  1.75020e-06
 Reference value :  1.75020e-06
 Reference value :  1.75021e-06
 Reference value :  1.75021e-06
 Reference value :  1.75022e-06
 Reference value :  1.75025e-06
 Reference value :  1.75029e-06
 Reference value :  1.75039e-06
 Reference value :  1.75058e-06
 Reference value :  1.75091e-06
 Reference value :  1.75141e-06
 Reference value :  1.75204e-06
 Reference value :  1.75262e-06
 Reference value :  1.75330e-06
 Reference value :  1.75415e-06
 Reference value :  1.75475e-06
 Reference value :  1.75545e-06
 Reference value :  1.75614e-06
 Reference value :  1.75688e-06
 Reference value :  1.75785e-06
 Reference value :  1.75890e-06
 Reference value :  1.76008e-06
 Reference value :  1.76151e-06
 Reference value :  1.76362e-06
 Reference value :  1.76564e-06
 Reference value :  1.76927e-06
 Reference value :  1.77381e-06
 Reference value :  1.78288e-06
 Reference value :  1.80102e-06
 Reference value :  1.83731e-06
 Reference value :  1.90987e-06
 Reference value :  2.00000e-06
 Reference value :  2.00001e-06
 Reference value :  2.00003e-06
 Reference value :  2.00007e-06
 Reference value :  2.00010e-06
 Reference value :  2.00010e-06
 Reference value :  2.00011e-06
 Reference value :  2.00013e-06
 Reference value :  2.00016e-06
 Reference value :  2.00023e-06
 Reference value :  2.00036e-06
 Reference value :  2.00054e-06
 Reference value :  2.00089e-06
 Reference value :  2.00139e-06
 Reference value :  2.00190e-06
 Reference value :  2.00243e-06
 Reference value :  2.00309e-06
 Reference value :  2.00375e-06
 Reference value :  2.00452e-06
 Reference value :  2.00515e-06
 Reference value :  2.00585e-06
 Reference value :  2.00653e-06
 Reference value :  2.00722e-06
 Reference value :  2.00797e-06
 Reference value :  2.00886e-06
 Reference value :  2.00988e-06
 Reference value :  2.01149e-06
 Reference value :  2.01378e-06
 Reference value :  2.01532e-06
 Reference value :  2.01706e-06
 Reference value :  2.01870e-06
 Reference value :  2.01995e-06
 Reference value :  2.02112e-06
 Reference value :  2.02221e-06
 Reference value :  2.02347e-06
 Reference value :  2.02497e-06
 Reference value :  2.02647e-06
 Reference value :  2.02900e-06
 Reference value :  2.03202e-06
 Reference value :  2.03808e-06
 Reference value :  2.04941e-06
 Reference value :  2.06775e-06
 Reference value :  2.10428e-06
 Reference value :  2.14783e-06
 Reference value :  2.20499e-06
 Reference value :  2.25010e-06
 Reference value :  2.25011e-06
 Reference value :  2.25013e-06
 Reference value :  2.25017e-06
 Reference value :  2.25020e-06
 Reference value :  2.25020e-06
 Reference value :  2.25020e-06
 Reference value :  2.25021e-06
 Reference value :  2.25021e-06
 Reference value :  2.25022e-06
 Reference value :  2.25025e-06
 Reference value :  2.25029e-06
 Reference value :  2.25039e-06
 Reference value :  2.25058e-06
 Reference value :  2.25091e-06
 Reference value :  2.25141e-06
 Reference value :  2.25198e-06
 Reference value :  2.25258e-06
 Reference value :  2.25323e-06
 Reference value :  2.25406e-06
 Reference value :  2.25467e-06
 Reference value :  2.25538e-06
 Reference value :  2.25618e-06
 Reference value :  2.25700e-06
 Reference value :  2.25810e-06
 Reference value :  2.25979e-06
 Reference value :  2.26175e-06
 Reference value :  2.26451e-06
 Reference value :  2.26838e-06
 Reference value :  2.27610e-06
 Reference value :  2.29156e-06
 Reference value :  2.32247e-06
 Reference value :  2.38429e-06
 Reference value :  2.44067e-06
 Reference value :  2.50000e-06
 Reference value :  2.50001e-06
 Reference value :  2.50003e-06
 Reference value :  2.50007e-06
 Reference value :  2.50010e-06
 Reference value :  2.50010e-06
 Reference value :  2.50011e-06
 Reference value :  2.50013e-06
 Reference value :  2.50016e-06
 Reference value :  2.50023e-06
 Reference value :  2.50036e-06
 Reference value :  2.50054e-06
 Reference value :  2.50089e-06
 Reference value :  2.50139e-06
 Reference value :  2.50190e-06
 Reference value :  2.50240e-06
 Reference value :  2.50303e-06
 Reference value :  2.50367e-06
 Reference value :  2.50454e-06
 Reference value :  2.50535e-06
 Reference value :  2.50627e-06
 Reference value :  2.50760e-06
 Reference value :  2.50901e-06
 Reference value :  2.51044e-06
 Reference value :  2.51183e-06
 Reference value :  2.51311e-06
 Reference value :  2.51453e-06
 Reference value :  2.51592e-06
 Reference value :  2.51755e-06
 Reference value :  2.52081e-06
 Reference value :  2.52595e-06
 Reference value :  2.53623e-06
 Reference value :  2.55679e-06
 Reference value :  2.59790e-06
 Reference value :  2.68014e-06
 Reference value :  2.75010e-06
 Reference value :  2.75011e-06
 Reference value :  2.75013e-06
 Reference value :  2.75017e-06
 Reference value :  2.75020e-06
 Reference value :  2.75020e-06
 Reference value :  2.75020e-06
 Reference value :  2.75021e-06
 Reference value :  2.75021e-06
 Reference value :  2.75022e-06
 Reference value :  2.75025e-06
 Reference value :  2.75029e-06
 Reference value :  2.75039e-06
 Reference value :  2.75058e-06
 Reference value :  2.75091e-06
 Reference value :  2.75140e-06
 Reference value :  2.75198e-06
 Reference value :  2.75258e-06
 Reference value :  2.75323e-06
 Reference value :  2.75407e-06
 Reference value :  2.75468e-06
 Reference value :  2.75540e-06
 Reference value :  2.75605e-06
 Reference value :  2.75677e-06
 Reference value :  2.75767e-06
 Reference value :  2.75867e-06
 Reference value :  2.75970e-06
 Reference value :  2.76119e-06
 Reference value :  2.76285e-06
 Reference value :  2.76513e-06
 Reference value :  2.76796e-06
 Reference value :  2.77218e-06
 Reference value :  2.78062e-06
 Reference value :  2.79670e-06
 Reference value :  2.82886e-06
 Reference value :  2.89318e-06
 Reference value :  3.00000e-06
 Reference value :  3.00001e-06
 Reference value :  3.00003e-06
 Reference value :  3.00007e-06
 Reference value :  3.00010e-06
 Reference value :  3.00010e-06
 Reference value :  3.00011e-06
 Reference value :  3.00013e-06
 Reference value :  3.00016e-06
 Reference value :  3.00023e-06
 Reference value :  3.00036e-06
 Reference value :  3.00054e-06
 Reference value :  3.00089e-06
 Reference value :  3.00139e-06
 Reference value :  3.00190e-06
 Reference value :  3.00243e-06
 Reference value :  3.00309e-06
 Reference value :  3.00375e-06
 Reference value :  3.00452e-06
 Reference value :  3.00515e-06
 Reference value :  3.00585e-06
 Reference value :  3.00654e-06
 Reference value :  3.00723e-06
 Reference value :  3.00797e-06
 Reference value :  3.00889e-06
 Reference value :  3.00988e-06
 Reference value :  3.01155e-06
 Reference value :  3.01316e-06
 Reference value :  3.01461e-06
 Reference value :  3.01613e-06
 Reference value :  3.01769e-06
 Reference value :  3.01890e-06
 Reference value :  3.02007e-06
 Reference value :  3.02152e-06
 Reference value :  3.02289e-06
 Reference value :  3.02421e-06
 Reference value :  3.02588e-06
 Reference value :  3.02811e-06
 Reference value :  3.03040e-06
 Reference value :  3.03450e-06
 Reference value :  3.04027e-06
 Reference value :  3.04961e-06
 Reference value :  3.06529e-06
 Reference value :  3.08925e-06
 Reference value :  3.12839e-06
 Reference value :  3.16877e-06
 Reference value :  3.20137e-06
 Reference value :  3.23556e-06
 Reference value :  3.25010e-06
 Reference value :  3.25011e-06
 Reference value :  3.25013e-06
 Reference value :  3.25017e-06
 Reference value :  3.25020e-06
 Reference value :  3.25020e-06
 Reference value :  3.25020e-06
 Reference value :  3.25021e-06
 Reference value :  3.25021e-06
 Reference value :  3.25022e-06
 Reference value :  3.25025e-06
 Reference value :  3.25029e-06
 Reference value :  3.25039e-06
 Reference value :  3.25057e-06
 Reference value :  3.25090e-06
 Reference value :  3.25139e-06
 Reference value :  3.25202e-06
 Reference value :  3.25260e-06
 Reference value :  3.25328e-06
 Reference value :  3.25412e-06
 Reference value :  3.25472e-06
 Reference value :  3.25542e-06
 Reference value :  3.25629e-06
 Reference value :  3.25717e-06
 Reference value :  3.25824e-06
 Reference value :  3.26012e-06
 Reference value :  3.26204e-06
 Reference value :  3.26512e-06
 Reference value :  3.26899e-06
 Reference value :  3.27673e-06
 Reference value :  3.29220e-06
 Reference value :  3.32314e-06
 Reference value :  3.38502e-06
 Reference value :  3.50000e-06
 Reference value :  3.50001e-06
 Reference value :  3.50003e-06
 Reference value :  3.50007e-06
 Reference value :  3.50010e-06
 Reference value :  3.50010e-06
 Reference value :  3.50011e-06
 Reference value :  3.50013e-06
 Reference value :  3.50016e-06
 Reference value :  3.50023e-06
 Reference value :  3.50037e-06
 Reference value :  3.50054e-06
 Reference value :  3.50090e-06
 Reference value :  3.50140e-06
 Reference value :  3.50191e-06
 Reference value :  3.50242e-06
 Reference value :  3.50304e-06
 Reference value :  3.50370e-06
 Reference value :  3.50456e-06
 Reference value :  3.50535e-06
 Reference value :  3.50630e-06
 Reference value :  3.50743e-06
 Reference value :  3.50872e-06
 Reference value :  3.50987e-06
 Reference value :  3.51106e-06
 Reference value :  3.51250e-06
 Reference value :  3.51408e-06
 Reference value :  3.51569e-06
 Reference value :  3.51758e-06
 Reference value :  3.52102e-06
 Reference value :  3.52603e-06
 Reference value :  3.53569e-06
 Reference value :  3.55395e-06
 Reference value :  3.58773e-06
 Reference value :  3.65528e-06
 Reference value :  3.75010e-06
 Reference value :  3.75011e-06
 Reference value :  3.75013e-06
 Reference value :  3.75017e-06
 Reference value :  3.75020e-06
 Reference value :  3.75020e-06
 Reference value :  3.75020e-06
 Reference value :  3.75021e-06
 Reference value :  3.75021e-06
 Reference value :  3.75022e-06
 Reference value :  3.75025e-06
 Reference value :  3.75029e-06
 Reference value :  3.75039e-06
 Reference value :  3.75058e-06
 Reference value :  3.75091e-06
 Reference value :  3.75140e-06
 Reference value :  3.75198e-06
 Reference value :  3.75258e-06
 Reference value :  3.75322e-06
 Reference value :  3.75407e-06
 Reference value :  3.75469e-06
 Reference value :  3.75540e-06
 Reference value :  3.75605e-06
 Reference value :  3.75678e-06
 Reference value :  3.75767e-06
 Reference value :  3.75867e-06
 Reference value :  3.75970e-06
 Reference value :  3.76119e-06
 Reference value :  3.76286e-06
 Reference value :  3.76514e-06
 Reference value :  3.76797e-06
 Reference value :  3.77220e-06
 Reference value :  3.78066e-06
 Reference value :  3.79718e-06
 Reference value :  3.83022e-06
 Reference value :  3.89631e-06
 Reference value :  4.00000e-06
 Reference value :  4.00001e-06
 Reference value :  4.00003e-06
 Reference value :  4.00007e-06
 Reference value :  4.00010e-06
 Reference value :  4.00010e-06
 Reference value :  4.00011e-06
 Reference value :  4.00013e-06
 Reference value :  4.00016e-06
 Reference value :  4.00023e-06
 Reference value :  4.00036e-06
 Reference value :  4.00054e-06
 Reference value :  4.00089e-06
 Reference value :  4.00139e-06
 Reference value :  4.00190e-06
 Reference value :  4.00243e-06
 Reference value :  4.00309e-06
 Reference value :  4.00375e-06
 Reference value :  4.00452e-06
 Reference value :  4.00515e-06
 Reference value :  4.00584e-06
 Reference value :  4.00653e-06
 Reference value :  4.00720e-06
 Reference value :  4.00793e-06
 Reference value :  4.00888e-06
 Reference value :  4.00986e-06
 Reference value :  4.01133e-06
 Reference value :  4.01253e-06
 Reference value :  4.01383e-06
 Reference value :  4.01514e-06
 Reference value :  4.01658e-06
 Reference value :  4.01797e-06
 Reference value :  4.01900e-06
 Reference value :  4.02004e-06
 Reference value :  4.02126e-06
 Reference value :  4.02242e-06
 Reference value :  4.02363e-06
 Reference value :  4.02504e-06
 Reference value :  4.02698e-06
 Reference value :  4.02909e-06
 Reference value :  4.03258e-06
 Reference value :  4.03847e-06
 Reference value :  4.04708e-06
 Reference value :  4.06243e-06
 Reference value :  4.08666e-06
 Reference value :  4.11025e-06
 Reference value :  4.13206e-06
 Reference value :  4.15229e-06
 Reference value :  4.17731e-06
 Reference value :  4.20359e-06
 Reference value :  4.25010e-06
 Reference value :  4.25011e-06
 Reference value :  4.25013e-06
 Reference value :  4.25017e-06
 Reference value :  4.25020e-06
 Reference value :  4.25020e-06
 Reference value :  4.25020e-06
 Reference value :  4.25021e-06
 Reference value :  4.25021e-06
 Reference value :  4.25022e-06
 Reference value :  4.25025e-06
 Reference value :  4.25029e-06
 Reference value :  4.25039e-06
 Reference value :  4.25057e-06
 Reference value :  4.25090e-06
 Reference value :  4.25139e-06
 Reference value :  4.25202e-06
 Reference value :  4.25260e-06
 Reference value :  4.25328e-06
 Reference value :  4.25412e-06
 Reference value :  4.25472e-06
 Reference value :  4.25542e-06
 Reference value :  4.25629e-06
 Reference value :  4.25717e-06
 Reference value :  4.25824e-06
 Reference value :  4.26011e-06
 Reference value :  4.26204e-06
 Reference value :  4.26511e-06
 Reference value :  4.26898e-06
 Reference value :  4.27671e-06
 Reference value :  4.29218e-06
 Reference value :  4.32313e-06
 Reference value :  4.38502e-06
 Reference value :  4.50000e-06
 Reference value :  4.50001e-06
 Reference value :  4.50003e-06
 Reference value :  4.50007e-06
 Reference value :  4.50010e-06
 Reference value :  4.50010e-06
 Reference value :  4.50011e-06
 Reference value :  4.50013e-06
 Reference value :  4.50016e-06
 Reference value :  4.50023e-06
 Reference value :  4.50037e-06
 Reference value :  4.50054e-06
 Reference value :  4.50090e-06
 Reference value :  4.50139e-06
 Reference value :  4.50191e-06
 Reference value :  4.50242e-06
 Reference value :  4.50304e-06
 Reference value :  4.50369e-06
 Reference value :  4.50456e-06
 Reference value :  4.50534e-06
 Reference value :  4.50628e-06
 Reference value :  4.50743e-06
 Reference value :  4.50870e-06
 Reference value :  4.50990e-06
 Reference value :  4.51112e-06
 Reference value :  4.51229e-06
 Reference value :  4.51361e-06
 Reference value :  4.51493e-06
 Reference value :  4.51644e-06
 Reference value :  4.51946e-06
 Reference value :  4.52550e-06
 Reference value :  4.53608e-06
 Reference value :  4.55722e-06
 Reference value :  4.59951e-06
 Reference value :  4.68410e-06
 Reference value :  4.75010e-06
 Reference value :  4.75011e-06
 Reference value :  4.75013e-06
 Reference value :  4.75017e-06
 Reference value :  4.75020e-06
 Reference value :  4.75020e-06
 Reference value :  4.75020e-06
 Reference value :  4.75021e-06
 Reference value :  4.75021e-06
 Reference value :  4.75022e-06
 Reference value :  4.75025e-06
 Reference value :  4.75029e-06
 Reference value :  4.75039e-06
 Reference value :  4.75058e-06
 Reference value :  4.75091e-06
 Reference value :  4.75140e-06
 Reference value :  4.75204e-06
 Reference value :  4.75261e-06
 Reference value :  4.75330e-06
 Reference value :  4.75415e-06
 Reference value :  4.75476e-06
 Reference value :  4.75546e-06
 Reference value :  4.75615e-06
 Reference value :  4.75689e-06
 Reference value :  4.75786e-06
 Reference value :  4.75891e-06
 Reference value :  4.76015e-06
 Reference value :  4.76155e-06
 Reference value :  4.76353e-06
 Reference value :  4.76561e-06
 Reference value :  4.76918e-06
 Reference value :  4.77385e-06
 Reference value :  4.78319e-06
 Reference value :  4.80186e-06
 Reference value :  4.83920e-06
 Reference value :  4.91390e-06
 Reference value :  5.00000e-06
 Reference value :  5.00001e-06
 Reference value :  5.00003e-06
 Reference value :  5.00007e-06
 Reference value :  5.00010e-06
 Reference value :  5.00010e-06
 Reference value :  5.00011e-06
 Reference value :  5.00013e-06
 Reference value :  5.00016e-06
 Reference value :  5.00023e-06
 Reference value :  5.00036e-06
 Reference value :  5.00054e-06
 Reference value :  5.00089e-06
 Reference value :  5.00138e-06
 Reference value :  5.00189e-06
 Reference value :  5.00243e-06
 Reference value :  5.00309e-06
 Reference value :  5.00374e-06
 Reference value :  5.00451e-06
 Reference value :  5.00514e-06
 Reference value :  5.00584e-06
 Reference value :  5.00652e-06
 Reference value :  5.00720e-06
 Reference value :  5.00792e-06
 Reference value :  5.00898e-06
 Reference value :  5.00994e-06
 Reference value :  5.01179e-06
 Reference value :  5.01294e-06
 Reference value :  5.01429e-06
 Reference value :  5.01560e-06
 Reference value :  5.01715e-06
 Reference value :  5.01864e-06
 Reference value :  5.02002e-06
 Reference value :  5.02153e-06
 Reference value :  5.02288e-06
 Reference value :  5.02427e-06
 Reference value :  5.02594e-06
 Reference value :  5.02808e-06
 Reference value :  5.03039e-06
 Reference value :  5.03430e-06
 Reference value :  5.03983e-06
 Reference value :  5.04871e-06
 Reference value :  5.06362e-06
 Reference value :  5.07772e-06
 Reference value :  5.09317e-06
 Reference value :  5.11144e-06
 Reference value :  5.13270e-06
 Reference value :  5.16174e-06
 Reference value :  5.18977e-06
 Reference value :  5.21689e-06
 Reference value :  5.24140e-06
 Reference value :  5.25010e-06
 Reference value :  5.25011e-06
 Reference value :  5.25013e-06
 Reference value :  5.25017e-06
 Reference value :  5.25020e-06
 Reference value :  5.25020e-06
 Reference value :  5.25020e-06
 Reference value :  5.25021e-06
 Reference value :  5.25021e-06
 Reference value :  5.25022e-06
 Reference value :  5.25025e-06
 Reference value :  5.25029e-06
 Reference value :  5.25039e-06
 Reference value :  5.25058e-06
 Reference value :  5.25091e-06
 Reference value :  5.25140e-06
 Reference value :  5.25203e-06
 Reference value :  5.25261e-06
 Reference value :  5.25330e-06
 Reference value :  5.25414e-06
 Reference value :  5.25474e-06
 Reference value :  5.25544e-06
 Reference value :  5.25630e-06
 Reference value :  5.25722e-06
 Reference value :  5.25825e-06
 Reference value :  5.26031e-06
 Reference value :  5.26221e-06
 Reference value :  5.26547e-06
 Reference value :  5.26934e-06
 Reference value :  5.27708e-06
 Reference value :  5.29256e-06
 Reference value :  5.32352e-06
 Reference value :  5.38545e-06
 Reference value :  5.50000e-06
 Reference value :  5.50001e-06
 Reference value :  5.50003e-06
 Reference value :  5.50007e-06
 Reference value :  5.50010e-06
 Reference value :  5.50010e-06
 Reference value :  5.50011e-06
 Reference value :  5.50013e-06
 Reference value :  5.50016e-06
 Reference value :  5.50023e-06
 Reference value :  5.50037e-06
 Reference value :  5.50054e-06
 Reference value :  5.50090e-06
 Reference value :  5.50140e-06
 Reference value :  5.50191e-06
 Reference value :  5.50242e-06
 Reference value :  5.50304e-06
 Reference value :  5.50370e-06
 Reference value :  5.50456e-06
 Reference value :  5.50538e-06
 Reference value :  5.50630e-06
 Reference value :  5.50761e-06
 Reference value :  5.50882e-06
 Reference value :  5.51017e-06
 Reference value :  5.51151e-06
 Reference value :  5.51282e-06
 Reference value :  5.51418e-06
 Reference value :  5.51572e-06
 Reference value :  5.51746e-06
 Reference value :  5.52056e-06
 Reference value :  5.52511e-06
 Reference value :  5.53374e-06
 Reference value :  5.54977e-06
 Reference value :  5.57946e-06
 Reference value :  5.63838e-06
 Reference value :  5.75010e-06
 Reference value :  5.75011e-06
 Reference value :  5.75013e-06
 Reference value :  5.75017e-06
 Reference value :  5.75020e-06
 Reference value :  5.75020e-06
 Reference value :  5.75020e-06
 Reference value :  5.75021e-06
 Reference value :  5.75021e-06
 Reference value :  5.75022e-06
 Reference value :  5.75025e-06
 Reference value :  5.75029e-06
 Reference value :  5.75039e-06
 Reference value :  5.75058e-06
 Reference value :  5.75091e-06
 Reference value :  5.75141e-06
 Reference value :  5.75204e-06
 Reference value :  5.75261e-06
 Reference value :  5.75330e-06
 Reference value :  5.75414e-06
 Reference value :  5.75475e-06
 Reference value :  5.75545e-06
 Reference value :  5.75614e-06
 Reference value :  5.75686e-06
 Reference value :  5.75783e-06
 Reference value :  5.75887e-06
 Reference value :  5.76005e-06
 Reference value :  5.76147e-06
 Reference value :  5.76355e-06
 Reference value :  5.76559e-06
 Reference value :  5.76916e-06
 Reference value :  5.77366e-06
 Reference value :  5.78265e-06
 Reference value :  5.80063e-06
 Reference value :  5.83659e-06
 Reference value :  5.90851e-06
 Reference value :  6.00000e-06
 Reference value :  6.00001e-06
 Reference value :  6.00003e-06
 Reference value :  6.00007e-06
 Reference value :  6.00010e-06
 Reference value :  6.00010e-06
 Reference value :  6.00011e-06
 Reference value :  6.00013e-06
 Reference value :  6.00016e-06
 Reference value :  6.00023e-06
 Reference value :  6.00036e-06
 Reference value :  6.00054e-06
 Reference value :  6.00089e-06
 Reference value :  6.00139e-06
 Reference value :  6.00190e-06
 Reference value :  6.00243e-06
 Reference value :  6.00309e-06
 Reference value :  6.00375e-06
 Reference value :  6.00452e-06
 Reference value :  6.00515e-06
 Reference value :  6.00584e-06
 Reference value :  6.00654e-06
 Reference value :  6.00726e-06
 Reference value :  6.00801e-06
 Reference value :  6.00908e-06
 Reference value :  6.01014e-06
 Reference value :  6.01205e-06
 Reference value :  6.01326e-06
 Reference value :  6.01466e-06
 Reference value :  6.01601e-06
 Reference value :  6.01754e-06
 Reference value :  6.01894e-06
 Reference value :  6.02041e-06
 Reference value :  6.02185e-06
 Reference value :  6.02340e-06
 Reference value :  6.02481e-06
 Reference value :  6.02660e-06
 Reference value :  6.02903e-06
 Reference value :  6.03157e-06
 Reference value :  6.03651e-06
 Reference value :  6.04307e-06
 Reference value :  6.05210e-06
 Reference value :  6.06177e-06
 Reference value :  6.07752e-06
 Reference value :  6.10513e-06
 Reference value :  6.14429e-06
 Reference value :  6.20921e-06
 Reference value :  6.25010e-06
 Reference value :  6.25011e-06
 Reference value :  6.25013e-06
 Reference value :  6.25017e-06
 Reference value :  6.25020e-06
 Reference value :  6.25020e-06
 Reference value :  6.25020e-06
 Reference value :  6.25021e-06
 Reference value :  6.25021e-06
 Reference value :  6.25022e-06
 Reference value :  6.25025e-06
 Reference value :  6.25029e-06
 Reference value :  6.25039e-06
 Reference value :  6.25058e-06
 Reference value :  6.25091e-06
 Reference value :  6.25141e-06
 Reference value :  6.25204e-06
 Reference value :  6.25262e-06
 Reference value :  6.25330e-06
 Reference value :  6.25414e-06
 Reference value :  6.25474e-06
 Reference value :  6.25543e-06
 Reference value :  6.25628e-06
 Reference value :  6.25722e-06
 Reference value :  6.25824e-06
 Reference value :  6.26029e-06
 Reference value :  6.26219e-06
 Reference value :  6.26543e-06
 Reference value :  6.26929e-06
 Reference value :  6.27701e-06
 Reference value :  6.29246e-06
 Reference value :  6.32336e-06
 Reference value :  6.38515e-06
 Reference value :  6.50000e-06
 Reference value :  6.50001e-06
 Reference value :  6.50003e-06
 Reference value :  6.50007e-06
 Reference value :  6.50010e-06
 Reference value :  6.50010e-06
 Reference value :  6.50011e-06
 Reference value :  6.50013e-06
 Reference value :  6.50016e-06
 Reference value :  6.50023e-06
 Reference value :  6.50037e-06
 Reference value :  6.50054e-06
 Reference value :  6.50090e-06
 Reference value :  6.50140e-06
 Reference value :  6.50191e-06
 Reference value :  6.50242e-06
 Reference value :  6.50304e-06
 Reference value :  6.50370e-06
 Reference value :  6.50456e-06
 Reference value :  6.50535e-06
 Reference value :  6.50628e-06
 Reference value :  6.50743e-06
 Reference value :  6.50873e-06
 Reference value :  6.50988e-06
 Reference value :  6.51108e-06
 Reference value :  6.51219e-06
 Reference value :  6.51350e-06
 Reference value :  6.51482e-06
 Reference value :  6.51630e-06
 Reference value :  6.51928e-06
 Reference value :  6.52523e-06
 Reference value :  6.53559e-06
 Reference value :  6.55630e-06
 Reference value :  6.59773e-06
 Reference value :  6.68059e-06
 Reference value :  6.75010e-06
 Reference value :  6.75011e-06
 Reference value :  6.75013e-06
 Reference value :  6.75017e-06
 Reference value :  6.75020e-06
 Reference value :  6.75020e-06
 Reference value :  6.75020e-06
 Reference value :  6.75021e-06
 Reference value :  6.75021e-06
 Reference value :  6.75022e-06
 Reference value :  6.75025e-06
 Reference value :  6.75029e-06
 Reference value :  6.75039e-06
 Reference value :  6.75058e-06
 Reference value :  6.75091e-06
 Reference value :  6.75141e-06
 Reference value :  6.75204e-06
 Reference value :  6.75262e-06
 Reference value :  6.75330e-06
 Reference value :  6.75415e-06
 Reference value :  6.75476e-06
 Reference value :  6.75545e-06
 Reference value :  6.75615e-06
 Reference value :  6.75688e-06
 Reference value :  6.75786e-06
 Reference value :  6.75892e-06
 Reference value :  6.76008e-06
 Reference value :  6.76152e-06
 Reference value :  6.76363e-06
 Reference value :  6.76565e-06
 Reference value :  6.76930e-06
 Reference value :  6.77386e-06
 Reference value :  6.78298e-06
 Reference value :  6.80122e-06
 Reference value :  6.83770e-06
 Reference value :  6.91065e-06
 Reference value :  7.00000e-06
 Reference value :  7.00001e-06
 Reference value :  7.00003e-06
 Reference value :  7.00007e-06
 Reference value :  7.00010e-06
 Reference value :  7.00010e-06
 Reference value :  7.00011e-06
 Reference value :  7.00013e-06
 Reference value :  7.00016e-06
 Reference value :  7.00023e-06
 Reference value :  7.00036e-06
 Reference value :  7.00054e-06
 Reference value :  7.00089e-06
 Reference value :  7.00139e-06
 Reference value :  7.00190e-06
 Reference value :  7.00243e-06
 Reference value :  7.00309e-06
 Reference value :  7.00375e-06
 Reference value :  7.00452e-06
 Reference value :  7.00515e-06
 Reference value :  7.00584e-06
 Reference value :  7.00653e-06
 Reference value :  7.00722e-06
 Reference value :  7.00794e-06
 Reference value :  7.00900e-06
 Reference value :  7.01000e-06
 Reference value :  7.01151e-06
 Reference value :  7.01299e-06
 Reference value :  7.01436e-06
 Reference value :  7.01585e-06
 Reference value :  7.01745e-06
 Reference value :  7.01929e-06
 Reference value :  7.02052e-06
 Reference value :  7.02185e-06
 Reference value :  7.02311e-06
 Reference value :  7.02441e-06
 Reference value :  7.02594e-06
 Reference value :  7.02828e-06
 Reference value :  7.03039e-06
 Reference value :  7.03457e-06
 Reference value :  7.04039e-06
 Reference value :  7.04761e-06
 Reference value :  7.05778e-06
 Reference value :  7.07812e-06
 Reference value :  7.10874e-06
 Reference value :  7.16998e-06
 Reference value :  7.24953e-06
 Reference value :  7.25010e-06
 Reference value :  7.25011e-06
 Reference value :  7.25013e-06
 Reference value :  7.25017e-06
 Reference value :  7.25020e-06
 Reference value :  7.25020e-06
 Reference value :  7.25020e-06
 Reference value :  7.25021e-06
 Reference value :  7.25021e-06
 Reference value :  7.25022e-06
 Reference value :  7.25025e-06
 Reference value :  7.25029e-06
 Reference value :  7.25039e-06
 Reference value :  7.25058e-06
 Reference value :  7.25092e-06
 Reference value :  7.25141e-06
 Reference value :  7.25198e-06
 Reference value :  7.25258e-06
 Reference value :  7.25322e-06
 Reference value :  7.25406e-06
 Reference value :  7.25466e-06
 Reference value :  7.25536e-06
 Reference value :  7.25619e-06
 Reference value :  7.25703e-06
 Reference value :  7.25811e-06
 Reference value :  7.25994e-06
 Reference value :  7.26184e-06
 Reference value :  7.26473e-06
 Reference value :  7.26856e-06
 Reference value :  7.27622e-06
 Reference value :  7.29154e-06
 Reference value :  7.32106e-06
 Reference value :  7.38009e-06
 Reference value :  7.49816e-06
 Reference value :  7.50000e-06
 Reference value :  7.50001e-06
 Reference value :  7.50003e-06
 Reference value :  7.50007e-06
 Reference value :  7.50010e-06
 Reference value :  7.50010e-06
 Reference value :  7.50011e-06
 Reference value :  7.50013e-06
 Reference value :  7.50016e-06
 Reference value :  7.50023e-06
 Reference value :  7.50036e-06
 Reference value :  7.50054e-06
 Reference value :  7.50090e-06
 Reference value :  7.50141e-06
 Reference value :  7.50193e-06
 Reference value :  7.50246e-06
 Reference value :  7.50308e-06
 Reference value :  7.50376e-06
 Reference value :  7.50456e-06
 Reference value :  7.50541e-06
 Reference value :  7.50631e-06
 Reference value :  7.50757e-06
 Reference value :  7.50906e-06
 Reference value :  7.51041e-06
 Reference value :  7.51180e-06
 Reference value :  7.51308e-06
 Reference value :  7.51447e-06
 Reference value :  7.51596e-06
 Reference value :  7.51767e-06
 Reference value :  7.52081e-06
 Reference value :  7.52534e-06
 Reference value :  7.53429e-06
 Reference value :  7.55096e-06
 Reference value :  7.58238e-06
 Reference value :  7.64524e-06
 Reference value :  7.75010e-06
 Reference value :  7.75011e-06
 Reference value :  7.75013e-06
 Reference value :  7.75017e-06
 Reference value :  7.75020e-06
 Reference value :  7.75020e-06
 Reference value :  7.75020e-06
 Reference value :  7.75021e-06
 Reference value :  7.75021e-06
 Reference value :  7.75022e-06
 Reference value :  7.75025e-06
 Reference value :  7.75029e-06
 Reference value :  7.75039e-06
 Reference value :  7.75058e-06
 Reference value :  7.75092e-06
 Reference value :  7.75141e-06
 Reference value :  7.75198e-06
 Reference value :  7.75258e-06
 Reference value :  7.75322e-06
 Reference value :  7.75406e-06
 Reference value :  7.75467e-06
 Reference value :  7.75537e-06
 Reference value :  7.75603e-06
 Reference value :  7.75675e-06
 Reference value :  7.75766e-06
 Reference value :  7.75867e-06
 Reference value :  7.75970e-06
 Reference value :  7.76119e-06
 Reference value :  7.76287e-06
 Reference value :  7.76517e-06
 Reference value :  7.76804e-06
 Reference value :  7.77231e-06
 Reference value :  7.78086e-06
 Reference value :  7.79794e-06
 Reference value :  7.83212e-06
 Reference value :  7.90046e-06
 Reference value :  8.00000e-06
 Reference value :  8.00001e-06
 Reference value :  8.00003e-06
 Reference value :  8.00007e-06
 Reference value :  8.00010e-06
 Reference value :  8.00010e-06
 Reference value :  8.00011e-06
 Reference value :  8.00013e-06
 Reference value :  8.00016e-06
 Reference value :  8.00023e-06
 Reference value :  8.00036e-06
 Reference value :  8.00054e-06
 Reference value :  8.00090e-06
 Reference value :  8.00141e-06
 Reference value :  8.00193e-06
 Reference value :  8.00248e-06
 Reference value :  8.00314e-06
 Reference value :  8.00383e-06
 Reference value :  8.00461e-06
 Reference value :  8.00525e-06
 Reference value :  8.00594e-06
 Reference value :  8.00661e-06
 Reference value :  8.00738e-06
 Reference value :  8.00810e-06
 Reference value :  8.00920e-06
 Reference value :  8.01025e-06
 Reference value :  8.01192e-06
 Reference value :  8.01319e-06
 Reference value :  8.01454e-06
 Reference value :  8.01597e-06
 Reference value :  8.01752e-06
 Reference value :  8.01920e-06
 Reference value :  8.02137e-06
 Reference value :  8.02426e-06
 Reference value :  8.02704e-06
 Reference value :  8.03107e-06
 Reference value :  8.03794e-06
 Reference value :  8.05022e-06
 Reference value :  8.06834e-06
 Reference value :  8.10290e-06
 Reference value :  8.14331e-06
 Reference value :  8.19806e-06
 Reference value :  8.25010e-06
 Reference value :  8.25011e-06
 Reference value :  8.25013e-06
 Reference value :  8.25017e-06
 Reference value :  8.25020e-06
 Reference value :  8.25020e-06
 Reference value :  8.25020e-06
 Reference value :  8.25021e-06
 Reference value :  8.25021e-06
 Reference value :  8.25022e-06
 Reference value :  8.25025e-06
 Reference value :  8.25029e-06
 Reference value :  8.25039e-06
 Reference value :  8.25057e-06
 Reference value :  8.25095e-06
 Reference value :  8.25141e-06
 Reference value :  8.25198e-06
 Reference value :  8.25258e-06
 Reference value :  8.25321e-06
 Reference value :  8.25405e-06
 Reference value :  8.25495e-06
 Reference value :  8.25613e-06
 Reference value :  8.25753e-06
 Reference value :  8.25885e-06
 Reference value :  8.26111e-06
 Reference value :  8.26351e-06
 Reference value :  8.26729e-06
 Reference value :  8.27292e-06
 Reference value :  8.28419e-06
 Reference value :  8.30672e-06
 Reference value :  8.35155e-06
 Reference value :  8.44121e-06
 Reference value :  8.50000e-06
 Reference value :  8.50001e-06
 Reference value :  8.50003e-06
 Reference value :  8.50007e-06
 Reference value :  8.50010e-06
 Reference value :  8.50010e-06
 Reference value :  8.50011e-06
 Reference value :  8.50013e-06
 Reference value :  8.50016e-06
 Reference value :  8.50023e-06
 Reference value :  8.50036e-06
 Reference value :  8.50062e-06
 Reference value :  8.50102e-06
 Reference value :  8.50173e-06
 Reference value :  8.50238e-06
 Reference value :  8.50294e-06
 Reference value :  8.50362e-06
 Reference value :  8.50426e-06
 Reference value :  8.50502e-06
 Reference value :  8.50586e-06
 Reference value :  8.50680e-06
 Reference value :  8.50827e-06
 Reference value :  8.50963e-06
 Reference value :  8.51111e-06
 Reference value :  8.51253e-06
 Reference value :  8.51419e-06
 Reference value :  8.51634e-06
 Reference value :  8.51873e-06
 Reference value :  8.52351e-06
 Reference value :  8.52918e-06
 Reference value :  8.53306e-06
 Reference value :  8.53733e-06
 Reference value :  8.54223e-06
 Reference value :  8.54758e-06
 Reference value :  8.55523e-06
 Reference value :  8.56476e-06
 Reference value :  8.57841e-06
 Reference value :  8.59767e-06
 Reference value :  8.62506e-06
 Reference value :  8.66547e-06
 Reference value :  8.72408e-06
 Reference value :  8.75010e-06
 Reference value :  8.75011e-06
 Reference value :  8.75013e-06
 Reference value :  8.75017e-06
 Reference value :  8.75020e-06
 Reference value :  8.75020e-06
 Reference value :  8.75020e-06
 Reference value :  8.75021e-06
 Reference value :  8.75021e-06
 Reference value :  8.75022e-06
 Reference value :  8.75025e-06
 Reference value :  8.75029e-06
 Reference value :  8.75039e-06
 Reference value :  8.75058e-06
 Reference value :  8.75095e-06
 Reference value :  8.75143e-06
 Reference value :  8.75198e-06
 Reference value :  8.75258e-06
 Reference value :  8.75323e-06
 Reference value :  8.75405e-06
 Reference value :  8.75467e-06
 Reference value :  8.75539e-06
 Reference value :  8.75615e-06
 Reference value :  8.75695e-06
 Reference value :  8.75805e-06
 Reference value :  8.75958e-06
 Reference value :  8.76159e-06
 Reference value :  8.76419e-06
 Reference value :  8.76810e-06
 Reference value :  8.77546e-06
 Reference value :  8.79017e-06
 Reference value :  8.81948e-06
 Reference value :  8.87725e-06
 Reference value :  8.99281e-06
 Reference value :  9.00000e-06
 Reference value :  9.00001e-06
 Reference value :  9.00003e-06
 Reference value :  9.00007e-06
 Reference value :  9.00010e-06
 Reference value :  9.00010e-06
 Reference value :  9.00011e-06
 Reference value :  9.00013e-06
 Reference value :  9.00016e-06
 Reference value :  9.00023e-06
 Reference value :  9.00036e-06
 Reference value :  9.00055e-06
 Reference value :  9.00092e-06
 Reference value :  9.00145e-06
 Reference value :  9.00199e-06
 Reference value :  9.00254e-06
 Reference value :  9.00316e-06
 Reference value :  9.00393e-06
 Reference value :  9.00468e-06
 Reference value :  9.00549e-06
 Reference value :  9.00647e-06
 Reference value :  9.00750e-06
 Reference value :  9.00921e-06
 Reference value :  9.01126e-06
 Reference value :  9.01316e-06
 Reference value :  9.01491e-06
 Reference value :  9.01648e-06
 Reference value :  9.01825e-06
 Reference value :  9.02068e-06
 Reference value :  9.02317e-06
 Reference value :  9.02771e-06
 Reference value :  9.03396e-06
 Reference value :  9.04617e-06
 Reference value :  9.06587e-06
 Reference value :  9.10098e-06
 Reference value :  9.16482e-06
 Reference value :  9.25010e-06
 Reference value :  9.25011e-06
 Reference value :  9.25013e-06
 Reference value :  9.25017e-06
 Reference value :  9.25020e-06
 Reference value :  9.25020e-06
 Reference value :  9.25020e-06
 Reference value :  9.25021e-06
 Reference value :  9.25021e-06
 Reference value :  9.25022e-06
 Reference value :  9.25025e-06
 Reference value :  9.25029e-06
 Reference value :  9.25039e-06
 Reference value :  9.25057e-06
 Reference value :  9.25094e-06
 Reference value :  9.25142e-06
 Reference value :  9.25198e-06
 Reference value :  9.25259e-06
 Reference value :  9.25324e-06
 Reference value :  9.25411e-06
 Reference value :  9.25473e-06
 Reference value :  9.25546e-06
 Reference value :  9.25613e-06
 Reference value :  9.25686e-06
 Reference value :  9.25780e-06
 Reference value :  9.25885e-06
 Reference value :  9.25985e-06
 Reference value :  9.26140e-06
 Reference value :  9.26300e-06
 Reference value :  9.26535e-06
 Reference value :  9.26813e-06
 Reference value :  9.27243e-06
 Reference value :  9.28090e-06
 Reference value :  9.29272e-06
 Reference value :  9.31636e-06
 Reference value :  9.36364e-06
 Reference value :  9.45821e-06
 Reference value :  9.50000e-06
 Reference value :  9.50001e-06
 Reference value :  9.50003e-06
 Reference value :  9.50007e-06
 Reference value :  9.50010e-06
 Reference value :  9.50010e-06
 Reference value :  9.50011e-06
 Reference value :  9.50013e-06
 Reference value :  9.50016e-06
 Reference value :  9.50023e-06
 Reference value :  9.50037e-06
 Reference value :  9.50055e-06
 Reference value :  9.50093e-06
 Reference value :  9.50151e-06
 Reference value :  9.50204e-06
 Reference value :  9.50261e-06
 Reference value :  9.50329e-06
 Reference value :  9.50407e-06
 Reference value :  9.50484e-06
 Reference value :  9.50553e-06
 Reference value :  9.50625e-06
 Reference value :  9.50696e-06
 Reference value :  9.50774e-06
 Reference value :  9.50853e-06
 Reference value :  9.50963e-06
 Reference value :  9.51104e-06
 Reference value :  9.51322e-06
 Reference value :  9.51469e-06
 Reference value :  9.51633e-06
 Reference value :  9.51799e-06
 Reference value :  9.51942e-06
 Reference value :  9.52057e-06
 Reference value :  9.52179e-06
 Reference value :  9.52318e-06
 Reference value :  9.52472e-06
 Reference value :  9.52631e-06
 Reference value :  9.52891e-06
 Reference value :  9.53047e-06
 Reference value :  9.53218e-06
 Reference value :  9.53389e-06
 Reference value :  9.53606e-06
 Reference value :  9.53914e-06
 Reference value :  9.54310e-06
 Reference value :  9.54921e-06
 Reference value :  9.55795e-06
 Reference value :  9.57247e-06
 Reference value :  9.58702e-06
 Reference value :  9.60639e-06
 Reference value :  9.64512e-06
 Reference value :  9.70139e-06
 Reference value :  9.75010e-06
 Reference value :  9.75011e-06
 Reference value :  9.75013e-06
 Reference value :  9.75017e-06
 Reference value :  9.75020e-06
 Reference value :  9.75020e-06
 Reference value :  9.75020e-06
 Reference value :  9.75021e-06
 Reference value :  9.75021e-06
 Reference value :  9.75022e-06
 Reference value :  9.75025e-06
 Reference value :  9.75029e-06
 Reference value :  9.75039e-06
 Reference value :  9.75057e-06
 Reference value :  9.75090e-06
 Reference value :  9.75140e-06
 Reference value :  9.75202e-06
 Reference value :  9.75261e-06
 Reference value :  9.75328e-06
 Reference value :  9.75411e-06
 Reference value :  9.75472e-06
 Reference value :  9.75542e-06
 Reference value :  9.75625e-06
 Reference value :  9.75708e-06
 Reference value :  9.75820e-06
 Reference value :  9.76000e-06
 Reference value :  9.76193e-06
 Reference value :  9.76488e-06
 Reference value :  9.76875e-06
 Reference value :  9.77648e-06
 Reference value :  9.79194e-06
 Reference value :  9.82287e-06
 Reference value :  9.88472e-06
 Reference value :  9.97615e-06
 Reference value :  1.00000e-05
 Reference value :  1.00000e-05
 Reference value :  1.00000e-05
 Reference value :  1.00001e-05
 Reference value :  1.00001e-05
 Reference value :  1.00001e-05
 Reference value :  1.00001e-05
 Reference value :  1.00001e-05
 Reference value :  1.00002e-05
 Reference value :  1.00002e-05
 Reference value :  1.00004e-05
 Reference value :  1.00005e-05
 Reference value :  1.00009e-05
 Reference value :  1.00014e-05
 Reference value :  1.00019e-05
 Reference value :  1.00024e-05
 Reference value :  1.00031e-05
 Reference value :  1.00038e-05
 Reference value :  1.00045e-05
 Reference value :  1.00054e-05
 Reference value :  1.00062e-05
 Reference value :  1.00075e-05
 Reference value :  1.00088e-05
 Reference value :  1.00101e-05
 Reference value :  1.00114e-05
 Reference value :  1.00130e-05
 Reference value :  1.00146e-05
 Reference value :  1.00165e-05
 Reference value :  1.00183e-05
 Reference value :  1.00220e-05
 Reference value :  1.00290e-05
 Reference value :  1.00401e-05
 Reference value :  1.00623e-05
 Reference value :  1.01067e-05
 Reference value :  1.01955e-05
 Reference value :  1.02501e-05
 Reference value :  1.02501e-05
 Reference value :  1.02501e-05
 Reference value :  1.02502e-05
 Reference value :  1.02502e-05
 Reference value :  1.02502e-05
 Reference value :  1.02502e-05
 Reference value :  1.02502e-05
 Reference value :  1.02502e-05
 Reference value :  1.02502e-05
 Reference value :  1.02502e-05
 Reference value :  1.02503e-05
 Reference value :  1.02504e-05
 Reference value :  1.02506e-05
 Reference value :  1.02509e-05
 Reference value :  1.02514e-05
 Reference value :  1.02520e-05
 Reference value :  1.02526e-05
 Reference value :  1.02532e-05
 Reference value :  1.02541e-05
 Reference value :  1.02547e-05
 Reference value :  1.02554e-05
 Reference value :  1.02560e-05
 Reference value :  1.02568e-05
 Reference value :  1.02577e-05
 Reference value :  1.02586e-05
 Reference value :  1.02606e-05
 Reference value :  1.02627e-05
 Reference value :  1.02662e-05
 Reference value :  1.02706e-05
 Reference value :  1.02793e-05
 Reference value :  1.02967e-05
 Reference value :  1.03315e-05
 Reference value :  1.04010e-05
 Reference value :  1.05000e-05
 Reference value :  1.05000e-05
 Reference value :  1.05000e-05
 Reference value :  1.05001e-05
 Reference value :  1.05001e-05
 Reference value :  1.05001e-05
 Reference value :  1.05001e-05
 Reference value :  1.05001e-05
 Reference value :  1.05002e-05
 Reference value :  1.05002e-05
 Reference value :  1.05004e-05
 Reference value :  1.05005e-05
 Reference value :  1.05009e-05
 Reference value :  1.05014e-05
 Reference value :  1.05019e-05
 Reference value :  1.05024e-05
 Reference value :  1.05031e-05
 Reference value :  1.05038e-05
 Reference value :  1.05045e-05
 Reference value :  1.05052e-05
 Reference value :  1.05059e-05
 Reference value :  1.05067e-05
 Reference value :  1.05075e-05
 Reference value :  1.05083e-05
 Reference value :  1.05093e-05
 Reference value :  1.05104e-05
 Reference value :  1.05123e-05
 Reference value :  1.05147e-05
 Reference value :  1.05166e-05
 Reference value :  1.05187e-05
 Reference value :  1.05202e-05
 Reference value :  1.05216e-05
 Reference value :  1.05228e-05
 Reference value :  1.05242e-05
 Reference value :  1.05257e-05
 Reference value :  1.05280e-05
 Reference value :  1.05301e-05
 Reference value :  1.05341e-05
 Reference value :  1.05398e-05
 Reference value :  1.05486e-05
 Reference value :  1.05635e-05
 Reference value :  1.05861e-05
 Reference value :  1.06206e-05
 Reference value :  1.06704e-05
 Reference value :  1.07430e-05
 Reference value :  1.07501e-05
 Reference value :  1.07501e-05
 Reference value :  1.07501e-05
 Reference value :  1.07502e-05
 Reference value :  1.07502e-05
 Reference value :  1.07502e-05
 Reference value :  1.07502e-05
 Reference value :  1.07502e-05
 Reference value :  1.07502e-05
 Reference value :  1.07502e-05
 Reference value :  1.07502e-05
 Reference value :  1.07503e-05
 Reference value :  1.07504e-05
 Reference value :  1.07506e-05
 Reference value :  1.07509e-05
 Reference value :  1.07514e-05
 Reference value :  1.07520e-05
 Reference value :  1.07526e-05
 Reference value :  1.07533e-05
 Reference value :  1.07541e-05
 Reference value :  1.07548e-05
 Reference value :  1.07555e-05
 Reference value :  1.07563e-05
 Reference value :  1.07572e-05
 Reference value :  1.07583e-05
 Reference value :  1.07602e-05
 Reference value :  1.07622e-05
 Reference value :  1.07653e-05
 Reference value :  1.07693e-05
 Reference value :  1.07771e-05
 Reference value :  1.07929e-05
 Reference value :  1.08243e-05
 Reference value :  1.08872e-05
 Reference value :  1.09850e-05
 Reference value :  1.10000e-05
 Reference value :  1.10000e-05
 Reference value :  1.10000e-05
 Reference value :  1.10001e-05
 Reference value :  1.10001e-05
 Reference value :  1.10001e-05
 Reference value :  1.10001e-05
 Reference value :  1.10001e-05
 Reference value :  1.10002e-05
 Reference value :  1.10002e-05
 Reference value :  1.10004e-05
 Reference value :  1.10005e-05
 Reference value :  1.10009e-05
 Reference value :  1.10014e-05
 Reference value :  1.10019e-05
 Reference value :  1.10024e-05
 Reference value :  1.10031e-05
 Reference value :  1.10038e-05
 Reference value :  1.10045e-05
 Reference value :  1.10054e-05
 Reference value :  1.10062e-05
 Reference value :  1.10075e-05
 Reference value :  1.10088e-05
 Reference value :  1.10101e-05
 Reference value :  1.10113e-05
 Reference value :  1.10130e-05
 Reference value :  1.10145e-05
 Reference value :  1.10162e-05
 Reference value :  1.10180e-05
 Reference value :  1.10216e-05
 Reference value :  1.10285e-05
 Reference value :  1.10399e-05
 Reference value :  1.10627e-05
 Reference value :  1.11082e-05
 Reference value :  1.11992e-05
 Reference value :  1.12501e-05
 Reference value :  1.12501e-05
 Reference value :  1.12501e-05
 Reference value :  1.12502e-05
 Reference value :  1.12502e-05
 Reference value :  1.12502e-05
 Reference value :  1.12502e-05
 Reference value :  1.12502e-05
 Reference value :  1.12502e-05
 Reference value :  1.12502e-05
 Reference value :  1.12502e-05
 Reference value :  1.12503e-05
 Reference value :  1.12504e-05
 Reference value :  1.12506e-05
 Reference value :  1.12509e-05
 Reference value :  1.12514e-05
 Reference value :  1.12520e-05
 Reference value :  1.12526e-05
 Reference value :  1.12532e-05
 Reference value :  1.12541e-05
 Reference value :  1.12547e-05
 Reference value :  1.12554e-05
 Reference value :  1.12560e-05
 Reference value :  1.12568e-05
 Reference value :  1.12577e-05
 Reference value :  1.12586e-05
 Reference value :  1.12606e-05
 Reference value :  1.12627e-05
 Reference value :  1.12663e-05
 Reference value :  1.12706e-05
 Reference value :  1.12793e-05
 Reference value :  1.12967e-05
 Reference value :  1.13315e-05
 Reference value :  1.14010e-05
 Reference value :  1.15000e-05
 Reference value :  1.15000e-05
 Reference value :  1.15000e-05
 Reference value :  1.15001e-05
 Reference value :  1.15001e-05
 Reference value :  1.15001e-05
 Reference value :  1.15001e-05
 Reference value :  1.15001e-05
 Reference value :  1.15002e-05
 Reference value :  1.15002e-05
 Reference value :  1.15004e-05
 Reference value :  1.15005e-05
 Reference value :  1.15009e-05
 Reference value :  1.15014e-05
 Reference value :  1.15019e-05
 Reference value :  1.15024e-05
 Reference value :  1.15031e-05
 Reference value :  1.15038e-05
 Reference value :  1.15045e-05
 Reference value :  1.15052e-05
 Reference value :  1.15059e-05
 Reference value :  1.15068e-05
 Reference value :  1.15075e-05
 Reference value :  1.15083e-05
 Reference value :  1.15095e-05
 Reference value :  1.15105e-05
 Reference value :  1.15126e-05
 Reference value :  1.15149e-05
 Reference value :  1.15168e-05
 Reference value :  1.15188e-05
 Reference value :  1.15202e-05
 Reference value :  1.15217e-05
 Reference value :  1.15231e-05
 Reference value :  1.15246e-05
 Reference value :  1.15263e-05
 Reference value :  1.15285e-05
 Reference value :  1.15310e-05
 Reference value :  1.15355e-05
 Reference value :  1.15417e-05
 Reference value :  1.15518e-05
 Reference value :  1.15681e-05
 Reference value :  1.15954e-05
 Reference value :  1.16455e-05
 Reference value :  1.16790e-05
 Reference value :  1.17160e-05
 Reference value :  1.17501e-05
 Reference value :  1.17501e-05
 Reference value :  1.17501e-05
 Reference value :  1.17502e-05
 Reference value :  1.17502e-05
 Reference value :  1.17502e-05
 Reference value :  1.17502e-05
 Reference value :  1.17502e-05
 Reference value :  1.17502e-05
 Reference value :  1.17502e-05
 Reference value :  1.17502e-05
 Reference value :  1.17503e-05
 Reference value :  1.17504e-05
 Reference value :  1.17506e-05
 Reference value :  1.17509e-05
 Reference value :  1.17514e-05
 Reference value :  1.17520e-05
 Reference value :  1.17526e-05
 Reference value :  1.17533e-05
 Reference value :  1.17541e-05
 Reference value :  1.17548e-05
 Reference value :  1.17555e-05
 Reference value :  1.17563e-05
 Reference value :  1.17572e-05
 Reference value :  1.17583e-05
 Reference value :  1.17602e-05
 Reference value :  1.17622e-05
 Reference value :  1.17654e-05
 Reference value :  1.17693e-05
 Reference value :  1.17772e-05
 Reference value :  1.17930e-05
 Reference value :  1.18246e-05
 Reference value :  1.18878e-05
 Reference value :  1.20000e-05
 Reference value :  1.20000e-05
 Reference value :  1.20000e-05
 Reference value :  1.20001e-05
 Reference value :  1.20001e-05
 Reference value :  1.20001e-05
 Reference value :  1.20001e-05
 Reference value :  1.20001e-05
 Reference value :  1.20002e-05
 Reference value :  1.20002e-05
 Reference value :  1.20004e-05
 Reference value :  1.20005e-05
 Reference value :  1.20009e-05
 Reference value :  1.20014e-05
 Reference value :  1.20019e-05
 Reference value :  1.20025e-05
 Reference value :  1.20031e-05
 Reference value :  1.20038e-05
 Reference value :  1.20045e-05
 Reference value :  1.20054e-05
 Reference value :  1.20062e-05
 Reference value :  1.20073e-05
 Reference value :  1.20087e-05
 Reference value :  1.20099e-05
 Reference value :  1.20111e-05
 Reference value :  1.20125e-05
 Reference value :  1.20141e-05
 Reference value :  1.20157e-05
 Reference value :  1.20175e-05
 Reference value :  1.20211e-05
 Reference value :  1.20266e-05
 Reference value :  1.20375e-05
 Reference value :  1.20593e-05
 Reference value :  1.21010e-05
 Reference value :  1.21844e-05
 Reference value :  1.22501e-05
 Reference value :  1.22501e-05
 Reference value :  1.22501e-05
 Reference value :  1.22502e-05
 Reference value :  1.22502e-05
 Reference value :  1.22502e-05
 Reference value :  1.22502e-05
 Reference value :  1.22502e-05
 Reference value :  1.22502e-05
 Reference value :  1.22502e-05
 Reference value :  1.22502e-05
 Reference value :  1.22503e-05
 Reference value :  1.22504e-05
 Reference value :  1.22506e-05
 Reference value :  1.22509e-05
 Reference value :  1.22514e-05
 Reference value :  1.22520e-05
 Reference value :  1.22526e-05
 Reference value :  1.22532e-05
 Reference value :  1.22541e-05
 Reference value :  1.22547e-05
 Reference value :  1.22554e-05
 Reference value :  1.22560e-05
 Reference value :  1.22568e-05
 Reference value :  1.22577e-05
 Reference value :  1.22587e-05
 Reference value :  1.22606e-05
 Reference value :  1.22627e-05
 Reference value :  1.22663e-05
 Reference value :  1.22706e-05
 Reference value :  1.22793e-05
 Reference value :  1.22967e-05
 Reference value :  1.23315e-05
 Reference value :  1.24011e-05
 Reference value :  1.25000e-05
 Reference value :  1.25000e-05
 Reference value :  1.25000e-05
 Reference value :  1.25001e-05
 Reference value :  1.25001e-05
 Reference value :  1.25001e-05
 Reference value :  1.25001e-05
 Reference value :  1.25001e-05
 Reference value :  1.25002e-05
 Reference value :  1.25002e-05
 Reference value :  1.25004e-05
 Reference value :  1.25005e-05
 Reference value :  1.25009e-05
 Reference value :  1.25014e-05
 Reference value :  1.25019e-05
 Reference value :  1.25024e-05
 Reference value :  1.25031e-05
 Reference value :  1.25038e-05
 Reference value :  1.25045e-05
 Reference value :  1.25052e-05
 Reference value :  1.25059e-05
 Reference value :  1.25068e-05
 Reference value :  1.25076e-05
 Reference value :  1.25084e-05
 Reference value :  1.25094e-05
 Reference value :  1.25106e-05
 Reference value :  1.25126e-05
 Reference value :  1.25150e-05
 Reference value :  1.25169e-05
 Reference value :  1.25189e-05
 Reference value :  1.25206e-05
 Reference value :  1.25224e-05
 Reference value :  1.25241e-05
 Reference value :  1.25262e-05
 Reference value :  1.25282e-05
 Reference value :  1.25311e-05
 Reference value :  1.25349e-05
 Reference value :  1.25418e-05
 Reference value :  1.25539e-05
 Reference value :  1.25759e-05
 Reference value :  1.26008e-05
 Reference value :  1.26274e-05
 Reference value :  1.26513e-05
 Reference value :  1.26924e-05
 Reference value :  1.27309e-05
 Reference value :  1.27501e-05
 Reference value :  1.27501e-05
 Reference value :  1.27501e-05
 Reference value :  1.27502e-05
 Reference value :  1.27502e-05
 Reference value :  1.27502e-05
 Reference value :  1.27502e-05
 Reference value :  1.27502e-05
 Reference value :  1.27502e-05
 Reference value :  1.27502e-05
 Reference value :  1.27502e-05
 Reference value :  1.27503e-05
 Reference value :  1.27504e-05
 Reference value :  1.27506e-05
 Reference value :  1.27509e-05
 Reference value :  1.27514e-05
 Reference value :  1.27520e-05
 Reference value :  1.27526e-05
 Reference value :  1.27533e-05
 Reference value :  1.27541e-05
 Reference value :  1.27547e-05
 Reference value :  1.27555e-05
 Reference value :  1.27563e-05
 Reference value :  1.27572e-05
 Reference value :  1.27583e-05
 Reference value :  1.27602e-05
 Reference value :  1.27622e-05
 Reference value :  1.27654e-05
 Reference value :  1.27693e-05
 Reference value :  1.27772e-05
 Reference value :  1.27929e-05
 Reference value :  1.28244e-05
 Reference value :  1.28873e-05
 Reference value :  1.30000e-05
 Reference value :  1.30000e-05
 Reference value :  1.30000e-05
 Reference value :  1.30001e-05
 Reference value :  1.30001e-05
 Reference value :  1.30001e-05
 Reference value :  1.30001e-05
 Reference value :  1.30001e-05
 Reference value :  1.30002e-05
 Reference value :  1.30002e-05
 Reference value :  1.30004e-05
 Reference value :  1.30005e-05
 Reference value :  1.30009e-05
 Reference value :  1.30014e-05
 Reference value :  1.30019e-05
 Reference value :  1.30024e-05
 Reference value :  1.30031e-05
 Reference value :  1.30038e-05
 Reference value :  1.30045e-05
 Reference value :  1.30054e-05
 Reference value :  1.30062e-05
 Reference value :  1.30073e-05
 Reference value :  1.30087e-05
 Reference value :  1.30099e-05
 Reference value :  1.30112e-05
 Reference value :  1.30124e-05
 Reference value :  1.30137e-05
 Reference value :  1.30151e-05
 Reference value :  1.30166e-05
 Reference value :  1.30196e-05
 Reference value :  1.30253e-05
 Reference value :  1.30364e-05
 Reference value :  1.30586e-05
 Reference value :  1.31029e-05
 Reference value :  1.31917e-05
 Reference value :  1.32501e-05
 Reference value :  1.32501e-05
 Reference value :  1.32501e-05
 Reference value :  1.32502e-05
 Reference value :  1.32502e-05
 Reference value :  1.32502e-05
 Reference value :  1.32502e-05
 Reference value :  1.32502e-05
 Reference value :  1.32502e-05
 Reference value :  1.32502e-05
 Reference value :  1.32502e-05
 Reference value :  1.32503e-05
 Reference value :  1.32504e-05
 Reference value :  1.32506e-05
 Reference value :  1.32509e-05
 Reference value :  1.32514e-05
 Reference value :  1.32520e-05
 Reference value :  1.32526e-05
 Reference value :  1.32533e-05
 Reference value :  1.32541e-05
 Reference value :  1.32547e-05
 Reference value :  1.32554e-05
 Reference value :  1.32561e-05
 Reference value :  1.32569e-05
 Reference value :  1.32578e-05
 Reference value :  1.32589e-05
 Reference value :  1.32610e-05
 Reference value :  1.32632e-05
 Reference value :  1.32670e-05
 Reference value :  1.32719e-05
 Reference value :  1.32817e-05
 Reference value :  1.33013e-05
 Reference value :  1.33405e-05
 Reference value :  1.34189e-05
 Reference value :  1.35000e-05
 Reference value :  1.35000e-05
 Reference value :  1.35000e-05
 Reference value :  1.35001e-05
 Reference value :  1.35001e-05
 Reference value :  1.35001e-05
 Reference value :  1.35001e-05
 Reference value :  1.35001e-05
 Reference value :  1.35002e-05
 Reference value :  1.35002e-05
 Reference value :  1.35004e-05
 Reference value :  1.35005e-05
 Reference value :  1.35009e-05
 Reference value :  1.35014e-05
 Reference value :  1.35019e-05
 Reference value :  1.35024e-05
 Reference value :  1.35031e-05
 Reference value :  1.35037e-05
 Reference value :  1.35045e-05
 Reference value :  1.35052e-05
 Reference value :  1.35059e-05
 Reference value :  1.35068e-05
 Reference value :  1.35075e-05
 Reference value :  1.35084e-05
 Reference value :  1.35095e-05
 Reference value :  1.35107e-05
 Reference value :  1.35129e-05
 Reference value :  1.35155e-05
 Reference value :  1.35175e-05
 Reference value :  1.35191e-05
 Reference value :  1.35207e-05
 Reference value :  1.35224e-05
 Reference value :  1.35240e-05
 Reference value :  1.35259e-05
 Reference value :  1.35278e-05
 Reference value :  1.35306e-05
 Reference value :  1.35343e-05
 Reference value :  1.35417e-05
 Reference value :  1.35531e-05
 Reference value :  1.35656e-05
 Reference value :  1.35796e-05
 Reference value :  1.35952e-05
 Reference value :  1.36189e-05
 Reference value :  1.36476e-05
 Reference value :  1.36980e-05
 Reference value :  1.37501e-05
 Reference value :  1.37501e-05
 Reference value :  1.37501e-05
 Reference value :  1.37502e-05
 Reference value :  1.37502e-05
 Reference value :  1.37502e-05
 Reference value :  1.37502e-05
 Reference value :  1.37502e-05
 Reference value :  1.37502e-05
 Reference value :  1.37502e-05
 Reference value :  1.37502e-05
 Reference value :  1.37503e-05
 Reference value :  1.37504e-05
 Reference value :  1.37506e-05
 Reference value :  1.37509e-05
 Reference value :  1.37514e-05
 Reference value :  1.37520e-05
 Reference value :  1.37526e-05
 Reference value :  1.37533e-05
 Reference value :  1.37541e-05
 Reference value :  1.37548e-05
 Reference value :  1.37555e-05
 Reference value :  1.37564e-05
 Reference value :  1.37573e-05
 Reference value :  1.37583e-05
 Reference value :  1.37603e-05
 Reference value :  1.37622e-05
 Reference value :  1.37654e-05
 Reference value :  1.37694e-05
 Reference value :  1.37773e-05
 Reference value :  1.37932e-05
 Reference value :  1.38249e-05
 Reference value :  1.38884e-05
 Reference value :  1.40000e-05
 Reference value :  1.40000e-05
 Reference value :  1.40000e-05
 Reference value :  1.40001e-05
 Reference value :  1.40001e-05
 Reference value :  1.40001e-05
 Reference value :  1.40001e-05
 Reference value :  1.40001e-05
 Reference value :  1.40002e-05
 Reference value :  1.40002e-05
 Reference value :  1.40004e-05
 Reference value :  1.40005e-05
 Reference value :  1.40009e-05
 Reference value :  1.40014e-05
 Reference value :  1.40019e-05
 Reference value :  1.40025e-05
 Reference value :  1.40031e-05
 Reference value :  1.40038e-05
 Reference value :  1.40045e-05
 Reference value :  1.40054e-05
 Reference value :  1.40062e-05
 Reference value :  1.40075e-05
 Reference value :  1.40089e-05
 Reference value :  1.40101e-05
 Reference value :  1.40115e-05
 Reference value :  1.40130e-05
 Reference value :  1.40144e-05
 Reference value :  1.40160e-05
 Reference value :  1.40178e-05
 Reference value :  1.40207e-05
 Reference value :  1.40251e-05
 Reference value :  1.40330e-05
 Reference value :  1.40475e-05
 Reference value :  1.40738e-05
 Reference value :  1.41248e-05
 Reference value :  1.42266e-05
 Reference value :  1.42501e-05
 Reference value :  1.42501e-05
 Reference value :  1.42501e-05
 Reference value :  1.42502e-05
 Reference value :  1.42502e-05
 Reference value :  1.42502e-05
 Reference value :  1.42502e-05
 Reference value :  1.42502e-05
 Reference value :  1.42502e-05
 Reference value :  1.42502e-05
 Reference value :  1.42502e-05
 Reference value :  1.42503e-05
 Reference value :  1.42504e-05
 Reference value :  1.42506e-05
 Reference value :  1.42509e-05
 Reference value :  1.42514e-05
 Reference value :  1.42520e-05
 Reference value :  1.42526e-05
 Reference value :  1.42533e-05
 Reference value :  1.42541e-05
 Reference value :  1.42547e-05
 Reference value :  1.42554e-05
 Reference value :  1.42561e-05
 Reference value :  1.42568e-05
 Reference value :  1.42578e-05
 Reference value :  1.42588e-05
 Reference value :  1.42609e-05
 Reference value :  1.42630e-05
 Reference value :  1.42667e-05
 Reference value :  1.42714e-05
 Reference value :  1.42807e-05
 Reference value :  1.42993e-05
 Reference value :  1.43365e-05
 Reference value :  1.44110e-05
 Reference value :  1.45000e-05
 Reference value :  1.45000e-05
 Reference value :  1.45000e-05
 Reference value :  1.45001e-05
 Reference value :  1.45001e-05
 Reference value :  1.45001e-05
 Reference value :  1.45001e-05
 Reference value :  1.45001e-05
 Reference value :  1.45002e-05
 Reference value :  1.45002e-05
 Reference value :  1.45004e-05
 Reference value :  1.45005e-05
 Reference value :  1.45009e-05
 Reference value :  1.45014e-05
 Reference value :  1.45019e-05
 Reference value :  1.45024e-05
 Reference value :  1.45031e-05
 Reference value :  1.45038e-05
 Reference value :  1.45045e-05
 Reference value :  1.45052e-05
 Reference value :  1.45059e-05
 Reference value :  1.45067e-05
 Reference value :  1.45074e-05
 Reference value :  1.45083e-05
 Reference value :  1.45094e-05
 Reference value :  1.45107e-05
 Reference value :  1.45128e-05
 Reference value :  1.45153e-05
 Reference value :  1.45173e-05
 Reference value :  1.45194e-05
 Reference value :  1.45210e-05
 Reference value :  1.45228e-05
 Reference value :  1.45246e-05
 Reference value :  1.45265e-05
 Reference value :  1.45286e-05
 Reference value :  1.45310e-05
 Reference value :  1.45346e-05
 Reference value :  1.45394e-05
 Reference value :  1.45469e-05
 Reference value :  1.45557e-05
 Reference value :  1.45656e-05
 Reference value :  1.45808e-05
 Reference value :  1.45973e-05
 Reference value :  1.46180e-05
 Reference value :  1.46418e-05
 Reference value :  1.46894e-05
 Reference value :  1.47426e-05
 Reference value :  1.47501e-05
 Reference value :  1.47501e-05
 Reference value :  1.47501e-05
 Reference value :  1.47502e-05
 Reference value :  1.47502e-05
 Reference value :  1.47502e-05
 Reference value :  1.47502e-05
 Reference value :  1.47502e-05
 Reference value :  1.47502e-05
 Reference value :  1.47502e-05
 Reference value :  1.47502e-05
 Reference value :  1.47503e-05
 Reference value :  1.47504e-05
 Reference value :  1.47506e-05
 Reference value :  1.47509e-05
 Reference value :  1.47514e-05
 Reference value :  1.47520e-05
 Reference value :  1.47526e-05
 Reference value :  1.47533e-05
 Reference value :  1.47541e-05
 Reference value :  1.47547e-05
 Reference value :  1.47555e-05
 Reference value :  1.47564e-05
 Reference value :  1.47572e-05
 Reference value :  1.47583e-05
 Reference value :  1.47605e-05
 Reference value :  1.47624e-05
 Reference value :  1.47657e-05
 Reference value :  1.47697e-05
 Reference value :  1.47776e-05
 Reference value :  1.47935e-05
 Reference value :  1.48252e-05
 Reference value :  1.48887e-05
 Reference value :  1.50000e-05
 Reference value :  1.50000e-05
 Reference value :  1.50000e-05
 Reference value :  1.50001e-05
 Reference value :  1.50001e-05
 Reference value :  1.50001e-05
 Reference value :  1.50001e-05
 Reference value :  1.50001e-05
 Reference value :  1.50002e-05
 Reference value :  1.50002e-05
 Reference value :  1.50004e-05
 Reference value :  1.50005e-05
 Reference value :  1.50009e-05
 Reference value :  1.50014e-05
 Reference value :  1.50019e-05
 Reference value :  1.50025e-05
 Reference value :  1.50031e-05
 Reference value :  1.50038e-05
 Reference value :  1.50045e-05
 Reference value :  1.50054e-05
 Reference value :  1.50062e-05
 Reference value :  1.50073e-05
 Reference value :  1.50087e-05
 Reference value :  1.50099e-05
 Reference value :  1.50112e-05
 Reference value :  1.50123e-05
 Reference value :  1.50136e-05
 Reference value :  1.50149e-05
 Reference value :  1.50164e-05
 Reference value :  1.50194e-05
 Reference value :  1.50255e-05
 Reference value :  1.50362e-05
 Reference value :  1.50576e-05
 Reference value :  1.51004e-05
 Reference value :  1.51862e-05
 Reference value :  1.52501e-05
 Reference value :  1.52501e-05
 Reference value :  1.52501e-05
 Reference value :  1.52502e-05
 Reference value :  1.52502e-05
 Reference value :  1.52502e-05
 Reference value :  1.52502e-05
 Reference value :  1.52502e-05
 Reference value :  1.52502e-05
 Reference value :  1.52502e-05
 Reference value :  1.52502e-05
 Reference value :  1.52503e-05
 Reference value :  1.52504e-05
 Reference value :  1.52506e-05
 Reference value :  1.52509e-05
 Reference value :  1.52514e-05
 Reference value :  1.52520e-05
 Reference value :  1.52526e-05
 Reference value :  1.52533e-05
 Reference value :  1.52541e-05
 Reference value :  1.52547e-05
 Reference value :  1.52554e-05
 Reference value :  1.52561e-05
 Reference value :  1.52569e-05
 Reference value :  1.52578e-05
 Reference value :  1.52589e-05
 Reference value :  1.52610e-05
 Reference value :  1.52632e-05
 Reference value :  1.52669e-05
 Reference value :  1.52718e-05
 Reference value :  1.52815e-05
 Reference value :  1.53009e-05
 Reference value :  1.53396e-05
 Reference value :  1.54172e-05
 Reference value :  1.55000e-05
 Reference value :  1.55012e-05
 Reference value :  1.55035e-05
 Reference value :  1.55048e-05
 Reference value :  1.55060e-05
 Reference value :  1.55074e-05
 Reference value :  1.55086e-05
 Reference value :  1.55098e-05
 Reference value :  1.55112e-05
 Reference value :  1.55127e-05
 Reference value :  1.55148e-05
 Reference value :  1.55168e-05
 Reference value :  1.55187e-05
 Reference value :  1.55202e-05
 Reference value :  1.55216e-05
 Reference value :  1.55229e-05
 Reference value :  1.55243e-05
 Reference value :  1.55258e-05
 Reference value :  1.55276e-05
 Reference value :  1.55299e-05
 Reference value :  1.55331e-05
 Reference value :  1.55382e-05
 Reference value :  1.55430e-05
 Reference value :  1.55501e-05
 Reference value :  1.55587e-05
 Reference value :  1.55646e-05
 Reference value :  1.55711e-05
 Reference value :  1.55800e-05
 Reference value :  1.55918e-05
 Reference value :  1.56084e-05
 Reference value :  1.56243e-05
 Reference value :  1.56392e-05
 Reference value :  1.56691e-05
 Reference value :  1.57163e-05
 Reference value :  1.57501e-05
 Reference value :  1.57501e-05
 Reference value :  1.57501e-05
 Reference value :  1.57502e-05
 Reference value :  1.57502e-05
 Reference value :  1.57502e-05
 Reference value :  1.57502e-05
 Reference value :  1.57502e-05
 Reference value :  1.57502e-05
 Reference value :  1.57502e-05
 Reference value :  1.57502e-05
 Reference value :  1.57503e-05
 Reference value :  1.57504e-05
 Reference value :  1.57506e-05
 Reference value :  1.57509e-05
 Reference value :  1.57514e-05
 Reference value :  1.57520e-05
 Reference value :  1.57526e-05
 Reference value :  1.57533e-05
 Reference value :  1.57541e-05
 Reference value :  1.57547e-05
 Reference value :  1.57554e-05
 Reference value :  1.57562e-05
 Reference value :  1.57572e-05
 Reference value :  1.57582e-05
 Reference value :  1.57601e-05
 Reference value :  1.57620e-05
 Reference value :  1.57651e-05
 Reference value :  1.57689e-05
 Reference value :  1.57765e-05
 Reference value :  1.57918e-05
 Reference value :  1.58224e-05
 Reference value :  1.58835e-05
 Reference value :  1.60000e-05
 Reference value :  1.60000e-05
 Reference value :  1.60000e-05
 Reference value :  1.60001e-05
 Reference value :  1.60001e-05
 Reference value :  1.60001e-05
 Reference value :  1.60001e-05
 Reference value :  1.60001e-05
 Reference value :  1.60002e-05
 Reference value :  1.60002e-05
 Reference value :  1.60004e-05
 Reference value :  1.60005e-05
 Reference value :  1.60009e-05
 Reference value :  1.60014e-05
 Reference value :  1.60019e-05
 Reference value :  1.60025e-05
 Reference value :  1.60031e-05
 Reference value :  1.60038e-05
 Reference value :  1.60046e-05
 Reference value :  1.60054e-05
 Reference value :  1.60064e-05
 Reference value :  1.60076e-05
 Reference value :  1.60089e-05
 Reference value :  1.60103e-05
 Reference value :  1.60115e-05
 Reference value :  1.60127e-05
 Reference value :  1.60141e-05
 Reference value :  1.60154e-05
 Reference value :  1.60170e-05
 Reference value :  1.60200e-05
 Reference value :  1.60250e-05
 Reference value :  1.60349e-05
 Reference value :  1.60547e-05
 Reference value :  1.60943e-05
 Reference value :  1.61734e-05
 Reference value :  1.62501e-05
 Reference value :  1.62501e-05
 Reference value :  1.62501e-05
 Reference value :  1.62502e-05
 Reference value :  1.62502e-05
 Reference value :  1.62502e-05
 Reference value :  1.62502e-05
 Reference value :  1.62502e-05
 Reference value :  1.62502e-05
 Reference value :  1.62502e-05
 Reference value :  1.62502e-05
 Reference value :  1.62503e-05
 Reference value :  1.62504e-05
 Reference value :  1.62506e-05
 Reference value :  1.62509e-05
 Reference value :  1.62514e-05
 Reference value :  1.62520e-05
 Reference value :  1.62526e-05
 Reference value :  1.62532e-05
 Reference value :  1.62541e-05
 Reference value :  1.62547e-05
 Reference value :  1.62554e-05
 Reference value :  1.62560e-05
 Reference value :  1.62568e-05
 Reference value :  1.62577e-05
 Reference value :  1.62587e-05
 Reference value :  1.62597e-05
[...]
 Reference value :  2.67823e-04
 Reference value :  2.67885e-04
 Reference value :  2.68000e-04
 Reference value :  2.68000e-04
 Reference value :  2.68000e-04
 Reference value :  2.68000e-04
 Reference value :  2.68000e-04
 Reference value :  2.68000e-04
 Reference value :  2.68000e-04
 Reference value :  2.68000e-04
 Reference value :  2.68000e-04
 Reference value :  2.68000e-04
 Reference value :  2.68000e-04
 Reference value :  2.68001e-04
 Reference value :  2.68001e-04
 Reference value :  2.68001e-04
 Reference value :  2.68002e-04
 Reference value :  2.68002e-04
 Reference value :  2.68003e-04
 Reference value :  2.68004e-04
 Reference value :  2.68005e-04
 Reference value :  2.68005e-04
 Reference value :  2.68006e-04
 Reference value :  2.68007e-04
 Reference value :  2.68009e-04
 Reference value :  2.68010e-04
 Reference value :  2.68011e-04
 Reference value :  2.68012e-04
 Reference value :  2.68014e-04
 Reference value :  2.68015e-04
 Reference value :  2.68016e-04
 Reference value :  2.68019e-04
 Reference value :  2.68025e-04
 Reference value :  2.68036e-04
 Reference value :  2.68057e-04
 Reference value :  2.68100e-04
 Reference value :  2.68184e-04
 Reference value :  2.68250e-04
 Reference value :  2.68250e-04
 Reference value :  2.68250e-04
 Reference value :  2.68250e-04
 Reference value :  2.68250e-04
 Reference value :  2.68250e-04
 Reference value :  2.68250e-04
 Reference value :  2.68250e-04
 Reference value :  2.68250e-04
 Reference value :  2.68250e-04
 Reference value :  2.68250e-04
 Reference value :  2.68250e-04
 Reference value :  2.68250e-04
 Reference value :  2.68251e-04
 Reference value :  2.68251e-04
 Reference value :  2.68251e-04
 Reference value :  2.68252e-04
 Reference value :  2.68253e-04
 Reference value :  2.68253e-04
 Reference value :  2.68254e-04
 Reference value :  2.68255e-04
 Reference value :  2.68255e-04
 Reference value :  2.68256e-04
 Reference value :  2.68257e-04
 Reference value :  2.68258e-04
 Reference value :  2.68259e-04
 Reference value :  2.68260e-04
 Reference value :  2.68262e-04
 Reference value :  2.68264e-04
 Reference value :  2.68266e-04
 Reference value :  2.68269e-04
 Reference value :  2.68274e-04
 Reference value :  2.68283e-04
 Reference value :  2.68301e-04
 Reference value :  2.68338e-04
 Reference value :  2.68411e-04
 Reference value :  2.68500e-04
 Reference value :  2.68500e-04
 Reference value :  2.68500e-04
 Reference value :  2.68500e-04
 Reference value :  2.68500e-04
 Reference value :  2.68500e-04
 Reference value :  2.68500e-04
 Reference value :  2.68500e-04
 Reference value :  2.68500e-04
 Reference value :  2.68500e-04
 Reference value :  2.68500e-04
 Reference value :  2.68501e-04
 Reference value :  2.68501e-04
 Reference value :  2.68501e-04
 Reference value :  2.68502e-04
 Reference value :  2.68502e-04
 Reference value :  2.68503e-04
 Reference value :  2.68504e-04
 Reference value :  2.68505e-04
 Reference value :  2.68505e-04
 Reference value :  2.68506e-04
 Reference value :  2.68507e-04
 Reference value :  2.68507e-04
 Reference value :  2.68508e-04
 Reference value :  2.68509e-04
 Reference value :  2.68510e-04
 Reference value :  2.68512e-04
 Reference value :  2.68513e-04
 Reference value :  2.68514e-04
 Reference value :  2.68516e-04
 Reference value :  2.68517e-04
 Reference value :  2.68519e-04
 Reference value :  2.68520e-04
 Reference value :  2.68522e-04
 Reference value :  2.68523e-04
 Reference value :  2.68524e-04
 Reference value :  2.68526e-04
 Reference value :  2.68528e-04
 Reference value :  2.68530e-04
 Reference value :  2.68534e-04
 Reference value :  2.68540e-04
 Reference value :  2.68546e-04
 Reference value :  2.68552e-04
 Reference value :  2.68558e-04
 Reference value :  2.68565e-04
 Reference value :  2.68570e-04
 Reference value :  2.68575e-04
 Reference value :  2.68581e-04
 Reference value :  2.68587e-04
 Reference value :  2.68598e-04
 Reference value :  2.68618e-04
 Reference value :  2.68648e-04
 Reference value :  2.68674e-04
 Reference value :  2.68702e-04
 Reference value :  2.68724e-04
 Reference value :  2.68745e-04
 Reference value :  2.68750e-04
 Reference value :  2.68750e-04
 Reference value :  2.68750e-04
 Reference value :  2.68750e-04
 Reference value :  2.68750e-04
 Reference value :  2.68750e-04
 Reference value :  2.68750e-04
 Reference value :  2.68750e-04
 Reference value :  2.68750e-04
 Reference value :  2.68750e-04
 Reference value :  2.68750e-04
 Reference value :  2.68750e-04
 Reference value :  2.68750e-04
 Reference value :  2.68751e-04
 Reference value :  2.68751e-04
 Reference value :  2.68751e-04
 Reference value :  2.68752e-04
 Reference value :  2.68753e-04
 Reference value :  2.68753e-04
 Reference value :  2.68754e-04
 Reference value :  2.68755e-04
 Reference value :  2.68755e-04
 Reference value :  2.68756e-04
 Reference value :  2.68757e-04
 Reference value :  2.68758e-04
 Reference value :  2.68760e-04
 Reference value :  2.68762e-04
 Reference value :  2.68765e-04
 Reference value :  2.68769e-04
 Reference value :  2.68777e-04
 Reference value :  2.68792e-04
 Reference value :  2.68823e-04
 Reference value :  2.68878e-04
 Reference value :  2.68935e-04
 Reference value :  2.69000e-04
 Reference value :  2.69000e-04
 Reference value :  2.69000e-04
 Reference value :  2.69000e-04
 Reference value :  2.69000e-04
 Reference value :  2.69000e-04
 Reference value :  2.69000e-04
 Reference value :  2.69000e-04
 Reference value :  2.69000e-04
 Reference value :  2.69000e-04
 Reference value :  2.69000e-04
 Reference value :  2.69001e-04
 Reference value :  2.69001e-04
 Reference value :  2.69001e-04
 Reference value :  2.69002e-04
 Reference value :  2.69002e-04
 Reference value :  2.69003e-04
 Reference value :  2.69004e-04
 Reference value :  2.69005e-04
 Reference value :  2.69005e-04
 Reference value :  2.69006e-04
 Reference value :  2.69008e-04
 Reference value :  2.69009e-04
 Reference value :  2.69010e-04
 Reference value :  2.69012e-04
 Reference value :  2.69013e-04
 Reference value :  2.69014e-04
 Reference value :  2.69016e-04
 Reference value :  2.69018e-04
 Reference value :  2.69021e-04
 Reference value :  2.69026e-04
 Reference value :  2.69034e-04
 Reference value :  2.69050e-04
 Reference value :  2.69079e-04
 Reference value :  2.69134e-04
 Reference value :  2.69246e-04
 Reference value :  2.69250e-04
 Reference value :  2.69250e-04
 Reference value :  2.69250e-04
 Reference value :  2.69250e-04
 Reference value :  2.69250e-04
 Reference value :  2.69250e-04
 Reference value :  2.69250e-04
 Reference value :  2.69250e-04
 Reference value :  2.69250e-04
 Reference value :  2.69250e-04
 Reference value :  2.69250e-04
 Reference value :  2.69250e-04
 Reference value :  2.69250e-04
 Reference value :  2.69251e-04
 Reference value :  2.69251e-04
 Reference value :  2.69251e-04
 Reference value :  2.69252e-04
 Reference value :  2.69253e-04
 Reference value :  2.69253e-04
 Reference value :  2.69254e-04
 Reference value :  2.69255e-04
 Reference value :  2.69255e-04
 Reference value :  2.69256e-04
 Reference value :  2.69257e-04
 Reference value :  2.69258e-04
 Reference value :  2.69259e-04
 Reference value :  2.69260e-04
 Reference value :  2.69261e-04
 Reference value :  2.69263e-04
 Reference value :  2.69265e-04
 Reference value :  2.69269e-04
 Reference value :  2.69273e-04
 Reference value :  2.69282e-04
 Reference value :  2.69299e-04
 Reference value :  2.69334e-04
 Reference value :  2.69404e-04
 Reference value :  2.69500e-04
 Reference value :  2.69500e-04
 Reference value :  2.69500e-04
 Reference value :  2.69500e-04
 Reference value :  2.69500e-04
 Reference value :  2.69500e-04
 Reference value :  2.69500e-04
 Reference value :  2.69500e-04
 Reference value :  2.69500e-04
 Reference value :  2.69500e-04
 Reference value :  2.69500e-04
 Reference value :  2.69501e-04
 Reference value :  2.69501e-04
 Reference value :  2.69501e-04
 Reference value :  2.69502e-04
 Reference value :  2.69502e-04
 Reference value :  2.69503e-04
 Reference value :  2.69504e-04
 Reference value :  2.69505e-04
 Reference value :  2.69505e-04
 Reference value :  2.69506e-04
 Reference value :  2.69507e-04
 Reference value :  2.69507e-04
 Reference value :  2.69508e-04
 Reference value :  2.69509e-04
 Reference value :  2.69510e-04
 Reference value :  2.69512e-04
 Reference value :  2.69513e-04
 Reference value :  2.69515e-04
 Reference value :  2.69516e-04
 Reference value :  2.69518e-04
 Reference value :  2.69519e-04
 Reference value :  2.69521e-04
 Reference value :  2.69522e-04
 Reference value :  2.69523e-04
 Reference value :  2.69525e-04
 Reference value :  2.69526e-04
 Reference value :  2.69528e-04
 Reference value :  2.69531e-04
 Reference value :  2.69534e-04
 Reference value :  2.69538e-04
 Reference value :  2.69541e-04
 Reference value :  2.69545e-04
 Reference value :  2.69548e-04
 Reference value :  2.69552e-04
 Reference value :  2.69555e-04
 Reference value :  2.69562e-04
 Reference value :  2.69571e-04
 Reference value :  2.69584e-04
 Reference value :  2.69604e-04
 Reference value :  2.69633e-04
 Reference value :  2.69680e-04
 Reference value :  2.69750e-04
 Reference value :  2.69750e-04
 Reference value :  2.69750e-04
 Reference value :  2.69750e-04
 Reference value :  2.69750e-04
 Reference value :  2.69750e-04
 Reference value :  2.69750e-04
 Reference value :  2.69750e-04
 Reference value :  2.69750e-04
 Reference value :  2.69750e-04
 Reference value :  2.69750e-04
 Reference value :  2.69750e-04
 Reference value :  2.69750e-04
 Reference value :  2.69751e-04
 Reference value :  2.69751e-04
 Reference value :  2.69751e-04
 Reference value :  2.69752e-04
 Reference value :  2.69753e-04
 Reference value :  2.69753e-04
 Reference value :  2.69754e-04
 Reference value :  2.69755e-04
 Reference value :  2.69755e-04
 Reference value :  2.69756e-04
 Reference value :  2.69757e-04
 Reference value :  2.69758e-04
 Reference value :  2.69760e-04
 Reference value :  2.69762e-04
 Reference value :  2.69766e-04
 Reference value :  2.69770e-04
 Reference value :  2.69777e-04
 Reference value :  2.69793e-04
 Reference value :  2.69825e-04
 Reference value :  2.69889e-04
 Reference value :  2.70000e-04
 Reference value :  2.70000e-04
 Reference value :  2.70000e-04
 Reference value :  2.70000e-04
 Reference value :  2.70000e-04
 Reference value :  2.70000e-04
 Reference value :  2.70000e-04
 Reference value :  2.70000e-04
 Reference value :  2.70000e-04
 Reference value :  2.70000e-04
 Reference value :  2.70000e-04
 Reference value :  2.70001e-04
 Reference value :  2.70001e-04
 Reference value :  2.70001e-04
 Reference value :  2.70002e-04
 Reference value :  2.70002e-04
 Reference value :  2.70003e-04
 Reference value :  2.70004e-04
 Reference value :  2.70005e-04
 Reference value :  2.70005e-04
 Reference value :  2.70006e-04
 Reference value :  2.70007e-04
 Reference value :  2.70009e-04
 Reference value :  2.70010e-04
 Reference value :  2.70011e-04
 Reference value :  2.70012e-04
 Reference value :  2.70014e-04
 Reference value :  2.70015e-04
 Reference value :  2.70016e-04
 Reference value :  2.70019e-04
 Reference value :  2.70025e-04
 Reference value :  2.70036e-04
 Reference value :  2.70057e-04
 Reference value :  2.70099e-04
 Reference value :  2.70184e-04
 Reference value :  2.70250e-04
 Reference value :  2.70250e-04
 Reference value :  2.70250e-04
 Reference value :  2.70250e-04
 Reference value :  2.70250e-04
 Reference value :  2.70250e-04
 Reference value :  2.70250e-04
 Reference value :  2.70250e-04
 Reference value :  2.70250e-04
 Reference value :  2.70250e-04
 Reference value :  2.70250e-04
 Reference value :  2.70250e-04
 Reference value :  2.70250e-04
 Reference value :  2.70251e-04
 Reference value :  2.70251e-04
 Reference value :  2.70251e-04
 Reference value :  2.70252e-04
 Reference value :  2.70253e-04
 Reference value :  2.70253e-04
 Reference value :  2.70254e-04
 Reference value :  2.70255e-04
 Reference value :  2.70255e-04
 Reference value :  2.70256e-04
 Reference value :  2.70257e-04
 Reference value :  2.70258e-04
 Reference value :  2.70259e-04
 Reference value :  2.70261e-04
 Reference value :  2.70263e-04
 Reference value :  2.70267e-04
 Reference value :  2.70272e-04
 Reference value :  2.70281e-04
 Reference value :  2.70301e-04
 Reference value :  2.70339e-04
 Reference value :  2.70417e-04
 Reference value :  2.70500e-04
 Reference value :  2.70500e-04
 Reference value :  2.70500e-04
 Reference value :  2.70500e-04
 Reference value :  2.70500e-04
 Reference value :  2.70500e-04
 Reference value :  2.70500e-04
 Reference value :  2.70500e-04
 Reference value :  2.70500e-04
 Reference value :  2.70500e-04
 Reference value :  2.70500e-04
 Reference value :  2.70501e-04
 Reference value :  2.70501e-04
 Reference value :  2.70501e-04
 Reference value :  2.70502e-04
 Reference value :  2.70502e-04
 Reference value :  2.70503e-04
 Reference value :  2.70504e-04
 Reference value :  2.70505e-04
 Reference value :  2.70505e-04
 Reference value :  2.70506e-04
 Reference value :  2.70507e-04
 Reference value :  2.70507e-04
 Reference value :  2.70508e-04
 Reference value :  2.70510e-04
 Reference value :  2.70511e-04
 Reference value :  2.70513e-04
 Reference value :  2.70515e-04
 Reference value :  2.70517e-04
 Reference value :  2.70520e-04
 Reference value :  2.70521e-04
 Reference value :  2.70523e-04
 Reference value :  2.70524e-04
 Reference value :  2.70526e-04
 Reference value :  2.70528e-04
 Reference value :  2.70531e-04
 Reference value :  2.70534e-04
 Reference value :  2.70539e-04
 Reference value :  2.70547e-04
 Reference value :  2.70559e-04
 Reference value :  2.70575e-04
 Reference value :  2.70597e-04
 Reference value :  2.70624e-04
 Reference value :  2.70649e-04
 Reference value :  2.70667e-04
 Reference value :  2.70684e-04
 Reference value :  2.70709e-04
 Reference value :  2.70744e-04
 Reference value :  2.70750e-04
 Reference value :  2.70750e-04
 Reference value :  2.70750e-04
 Reference value :  2.70750e-04
 Reference value :  2.70750e-04
 Reference value :  2.70750e-04
 Reference value :  2.70750e-04
 Reference value :  2.70750e-04
 Reference value :  2.70750e-04
 Reference value :  2.70750e-04
 Reference value :  2.70750e-04
 Reference value :  2.70750e-04
 Reference value :  2.70750e-04
 Reference value :  2.70751e-04
 Reference value :  2.70751e-04
 Reference value :  2.70751e-04
 Reference value :  2.70752e-04
 Reference value :  2.70753e-04
 Reference value :  2.70753e-04
 Reference value :  2.70754e-04
 Reference value :  2.70755e-04
 Reference value :  2.70755e-04
 Reference value :  2.70756e-04
 Reference value :  2.70757e-04
 Reference value :  2.70758e-04
 Reference value :  2.70760e-04
 Reference value :  2.70762e-04
 Reference value :  2.70765e-04
 Reference value :  2.70769e-04
 Reference value :  2.70777e-04
 Reference value :  2.70792e-04
 Reference value :  2.70823e-04
 Reference value :  2.70853e-04
 Reference value :  2.70912e-04
 Reference value :  2.71000e-04
 Reference value :  2.71000e-04
 Reference value :  2.71000e-04
 Reference value :  2.71000e-04
 Reference value :  2.71000e-04
 Reference value :  2.71000e-04
 Reference value :  2.71000e-04
 Reference value :  2.71000e-04
 Reference value :  2.71000e-04
 Reference value :  2.71000e-04
 Reference value :  2.71000e-04
 Reference value :  2.71001e-04
 Reference value :  2.71001e-04
 Reference value :  2.71001e-04
 Reference value :  2.71002e-04
 Reference value :  2.71002e-04
 Reference value :  2.71003e-04
 Reference value :  2.71004e-04
 Reference value :  2.71005e-04
 Reference value :  2.71005e-04
 Reference value :  2.71006e-04
 Reference value :  2.71008e-04
 Reference value :  2.71009e-04
 Reference value :  2.71010e-04
 Reference value :  2.71012e-04
 Reference value :  2.71013e-04
 Reference value :  2.71014e-04
 Reference value :  2.71016e-04
 Reference value :  2.71018e-04
 Reference value :  2.71021e-04
 Reference value :  2.71025e-04
 Reference value :  2.71034e-04
 Reference value :  2.71051e-04
 Reference value :  2.71082e-04
 Reference value :  2.71145e-04
 Reference value :  2.71250e-04
 Reference value :  2.71250e-04
 Reference value :  2.71250e-04
 Reference value :  2.71250e-04
 Reference value :  2.71250e-04
 Reference value :  2.71250e-04
 Reference value :  2.71250e-04
 Reference value :  2.71250e-04
 Reference value :  2.71250e-04
 Reference value :  2.71250e-04
 Reference value :  2.71250e-04
 Reference value :  2.71250e-04
 Reference value :  2.71250e-04
 Reference value :  2.71251e-04
 Reference value :  2.71251e-04
 Reference value :  2.71251e-04
 Reference value :  2.71252e-04
 Reference value :  2.71253e-04
 Reference value :  2.71253e-04
 Reference value :  2.71254e-04
 Reference value :  2.71255e-04
 Reference value :  2.71255e-04
 Reference value :  2.71256e-04
 Reference value :  2.71257e-04
 Reference value :  2.71258e-04
 Reference value :  2.71259e-04
 Reference value :  2.71260e-04
 Reference value :  2.71261e-04
 Reference value :  2.71263e-04
 Reference value :  2.71265e-04
 Reference value :  2.71268e-04
 Reference value :  2.71272e-04
 Reference value :  2.71281e-04
 Reference value :  2.71298e-04
 Reference value :  2.71332e-04
 Reference value :  2.71400e-04
 Reference value :  2.71500e-04
 Reference value :  2.71500e-04
 Reference value :  2.71500e-04
 Reference value :  2.71500e-04
 Reference value :  2.71500e-04
 Reference value :  2.71500e-04
 Reference value :  2.71500e-04
 Reference value :  2.71500e-04
 Reference value :  2.71500e-04
 Reference value :  2.71500e-04
 Reference value :  2.71500e-04
 Reference value :  2.71501e-04
 Reference value :  2.71501e-04
 Reference value :  2.71501e-04
 Reference value :  2.71502e-04
 Reference value :  2.71502e-04
 Reference value :  2.71503e-04
 Reference value :  2.71504e-04
 Reference value :  2.71505e-04
 Reference value :  2.71505e-04
 Reference value :  2.71506e-04
 Reference value :  2.71507e-04
 Reference value :  2.71507e-04
 Reference value :  2.71508e-04
 Reference value :  2.71509e-04
 Reference value :  2.71510e-04
 Reference value :  2.71512e-04
 Reference value :  2.71513e-04
 Reference value :  2.71515e-04
 Reference value :  2.71516e-04
 Reference value :  2.71517e-04
 Reference value :  2.71519e-04
 Reference value :  2.71521e-04
 Reference value :  2.71524e-04
 Reference value :  2.71527e-04
 Reference value :  2.71531e-04
 Reference value :  2.71536e-04
 Reference value :  2.71545e-04
 Reference value :  2.71555e-04
 Reference value :  2.71562e-04
 Reference value :  2.71569e-04
 Reference value :  2.71578e-04
 Reference value :  2.71588e-04
 Reference value :  2.71598e-04
 Reference value :  2.71617e-04
 Reference value :  2.71643e-04
 Reference value :  2.71683e-04
 Reference value :  2.71750e-04
 Reference value :  2.71750e-04
 Reference value :  2.71750e-04
 Reference value :  2.71750e-04
 Reference value :  2.71750e-04
 Reference value :  2.71750e-04
 Reference value :  2.71750e-04
 Reference value :  2.71750e-04
 Reference value :  2.71750e-04
 Reference value :  2.71750e-04
 Reference value :  2.71750e-04
 Reference value :  2.71750e-04
 Reference value :  2.71750e-04
 Reference value :  2.71750e-04
 Reference value :  2.71751e-04
 Reference value :  2.71751e-04
 Reference value :  2.71751e-04
 Reference value :  2.71752e-04
 Reference value :  2.71753e-04
 Reference value :  2.71753e-04
 Reference value :  2.71754e-04
 Reference value :  2.71755e-04
 Reference value :  2.71756e-04
 Reference value :  2.71758e-04
 Reference value :  2.71759e-04
 Reference value :  2.71761e-04
 Reference value :  2.71764e-04
 Reference value :  2.71767e-04
 Reference value :  2.71773e-04
 Reference value :  2.71784e-04
 Reference value :  2.71807e-04
 Reference value :  2.71851e-04
 Reference value :  2.71941e-04
 Reference value :  2.72000e-04
No. of Data Rows : 41828
ngspice-44 done
