
Note: Compatibility modes selected: hs a


Circuit: ** sch_path: /home/samantha/cace/sar-adc-using-sky130-pdk/runs/run_2025-08-20_23-09-23/parameters/power/run_05/transient.sch

option SCALE: Scale is set to 1e-06 for instance and model parameters
option SCALE: Scale is set to 1e-06 for instance and model parameters
option SCALE: Scale is set to 1e-06 for instance and model parameters
option SCALE: Scale is set to 1e-06 for instance and model parameters
Doing analysis at TEMP = 27.000000 and TNOM = 27.000000

Using KLU as Direct Linear Solver
Operating point simulation skipped by 'uic',
  now using transient initial conditions.
 Reference value :  5.00000e-12
 Reference value :  5.14000e-12
 Reference value :  5.42000e-12
 Reference value :  7.10000e-12
 Reference value :  1.16506e-11
 Reference value :  2.28507e-11
 Reference value :  6.24375e-11
 Reference value :  2.04088e-10
 Reference value :  3.65661e-10
 Reference value :  5.00000e-10
 Reference value :  5.46126e-10
 Reference value :  6.07627e-10
 Reference value :  7.30629e-10
 Reference value :  9.76632e-10
 Reference value :  1.63793e-09
 Reference value :  2.17024e-09
 Reference value :  2.71097e-09
 Reference value :  3.53816e-09
 Reference value :  5.41288e-09
 Reference value :  6.55866e-09
 Reference value :  7.34816e-09
 Reference value :  7.99892e-09
 Reference value :  8.69522e-09
 Reference value :  1.04889e-08
 Reference value :  1.16424e-08
 Reference value :  1.26713e-08
 Reference value :  1.34667e-08
 Reference value :  1.43320e-08
 Reference value :  1.52311e-08
 Reference value :  1.80379e-08
 Reference value :  2.42494e-08
 Reference value :  2.79957e-08
 Reference value :  3.19906e-08
 Reference value :  3.70852e-08
 Reference value :  5.00063e-08
 Reference value :  7.36688e-08
 Reference value :  1.28239e-07
 Reference value :  2.72362e-07
 Reference value :  4.58775e-07
 Reference value :  5.29115e-07
 Reference value :  6.76518e-07
 Reference value :  1.00050e-06
 Reference value :  1.00055e-06
 Reference value :  1.00085e-06
 Reference value :  1.00103e-06
 Reference value :  1.00121e-06
 Reference value :  1.00139e-06
 Reference value :  1.00158e-06
 Reference value :  1.00197e-06
 Reference value :  1.00283e-06
 Reference value :  1.00425e-06
 Reference value :  1.00485e-06
 Reference value :  1.00552e-06
 Reference value :  1.00624e-06
 Reference value :  1.00789e-06
 Reference value :  1.01088e-06
 Reference value :  1.01774e-06
 Reference value :  1.04183e-06
 Reference value :  1.13388e-06
 Reference value :  1.50207e-06
 Reference value :  1.99299e-06
 Reference value :  2.00000e-06
 Reference value :  2.00005e-06
 Reference value :  2.00035e-06
 Reference value :  2.00050e-06
 Reference value :  2.00060e-06
 Reference value :  2.00074e-06
 Reference value :  2.00155e-06
 Reference value :  2.00203e-06
 Reference value :  2.00246e-06
 Reference value :  2.00297e-06
 Reference value :  2.00349e-06
 Reference value :  2.00405e-06
 Reference value :  2.00468e-06
 Reference value :  2.00532e-06
 Reference value :  2.00728e-06
 Reference value :  2.00896e-06
 Reference value :  2.01017e-06
 Reference value :  2.01148e-06
 Reference value :  2.01286e-06
 Reference value :  2.01444e-06
 Reference value :  2.01589e-06
 Reference value :  2.01788e-06
 Reference value :  2.02001e-06
 Reference value :  2.02934e-06
 Reference value :  2.05528e-06
 Reference value :  2.08987e-06
 Reference value :  2.15861e-06
 Reference value :  2.57103e-06
 Reference value :  3.00055e-06
 Reference value :  3.00065e-06
 Reference value :  3.00085e-06
 Reference value :  3.00100e-06
 Reference value :  3.00103e-06
 Reference value :  3.00110e-06
 Reference value :  3.00145e-06
 Reference value :  3.00213e-06
 Reference value :  3.00261e-06
 Reference value :  3.00310e-06
 Reference value :  3.00377e-06
 Reference value :  3.00449e-06
 Reference value :  3.00502e-06
 Reference value :  3.00565e-06
 Reference value :  3.00706e-06
 Reference value :  3.00790e-06
 Reference value :  3.01176e-06
 Reference value :  3.02120e-06
 Reference value :  3.05630e-06
 Reference value :  3.19302e-06
 Reference value :  3.73990e-06
 Reference value :  4.00005e-06
 Reference value :  4.00035e-06
 Reference value :  4.00050e-06
 Reference value :  4.00060e-06
 Reference value :  4.00074e-06
 Reference value :  4.00155e-06
 Reference value :  4.00202e-06
 Reference value :  4.00247e-06
 Reference value :  4.00297e-06
 Reference value :  4.00351e-06
 Reference value :  4.00409e-06
 Reference value :  4.00461e-06
 Reference value :  4.00516e-06
 Reference value :  4.00562e-06
 Reference value :  4.00616e-06
 Reference value :  4.00761e-06
 Reference value :  4.01066e-06
 Reference value :  4.01205e-06
 Reference value :  4.01353e-06
 Reference value :  4.01458e-06
 Reference value :  4.01554e-06
 Reference value :  4.01650e-06
 Reference value :  4.01762e-06
 Reference value :  4.01900e-06
 Reference value :  4.02233e-06
 Reference value :  4.02938e-06
 Reference value :  4.03916e-06
 Reference value :  4.04696e-06
 Reference value :  4.05117e-06
 Reference value :  4.05443e-06
 Reference value :  4.05792e-06
 Reference value :  4.06266e-06
 Reference value :  4.06871e-06
 Reference value :  4.07452e-06
 Reference value :  4.08071e-06
 Reference value :  4.10041e-06
 Reference value :  4.11769e-06
 Reference value :  4.14804e-06
 Reference value :  4.20052e-06
 Reference value :  4.30550e-06
 Reference value :  4.60786e-06
 Reference value :  5.00050e-06
 Reference value :  5.00055e-06
 Reference value :  5.00065e-06
 Reference value :  5.00085e-06
 Reference value :  5.00100e-06
 Reference value :  5.00103e-06
 Reference value :  5.00124e-06
 Reference value :  5.00145e-06
 Reference value :  5.00167e-06
 Reference value :  5.00213e-06
 Reference value :  5.00261e-06
 Reference value :  5.00310e-06
 Reference value :  5.00446e-06
 Reference value :  5.00501e-06
 Reference value :  5.00563e-06
 Reference value :  5.00623e-06
 Reference value :  5.00705e-06
 Reference value :  5.00794e-06
 Reference value :  5.01185e-06
 Reference value :  5.02163e-06
 Reference value :  5.05957e-06
 Reference value :  5.21134e-06
 Reference value :  5.41370e-06
 Reference value :  6.00000e-06
 Reference value :  6.00015e-06
 Reference value :  6.00035e-06
 Reference value :  6.00050e-06
 Reference value :  6.00053e-06
 Reference value :  6.00074e-06
 Reference value :  6.00102e-06
 Reference value :  6.00155e-06
 Reference value :  6.00202e-06
 Reference value :  6.00245e-06
 Reference value :  6.00296e-06
 Reference value :  6.00354e-06
 Reference value :  6.00419e-06
 Reference value :  6.00482e-06
 Reference value :  6.00556e-06
 Reference value :  6.00645e-06
 Reference value :  6.00711e-06
 Reference value :  6.00789e-06
 Reference value :  6.00879e-06
 Reference value :  6.01070e-06
 Reference value :  6.01188e-06
 Reference value :  6.01316e-06
 Reference value :  6.01550e-06
 Reference value :  6.02453e-06
 Reference value :  6.03423e-06
 Reference value :  6.08198e-06
 Reference value :  6.14566e-06
 Reference value :  6.27302e-06
 Reference value :  6.52773e-06
 Reference value :  7.00055e-06
 Reference value :  7.00085e-06
 Reference value :  7.00100e-06
 Reference value :  7.00103e-06
 Reference value :  7.00110e-06
 Reference value :  7.00145e-06
 Reference value :  7.00213e-06
 Reference value :  7.00310e-06
 Reference value :  7.00377e-06
 Reference value :  7.00448e-06
 Reference value :  7.00502e-06
 Reference value :  7.00564e-06
 Reference value :  7.00628e-06
 Reference value :  7.00791e-06
 Reference value :  7.00877e-06
 Reference value :  7.01092e-06
 Reference value :  7.01473e-06
 Reference value :  7.02330e-06
 Reference value :  7.03095e-06
 Reference value :  7.06315e-06
 Reference value :  7.14584e-06
 Reference value :  7.45565e-06
 Reference value :  8.00000e-06
 Reference value :  8.00015e-06
 Reference value :  8.00035e-06
 Reference value :  8.00050e-06
 Reference value :  8.00053e-06
 Reference value :  8.00060e-06
 Reference value :  8.00074e-06
 Reference value :  8.00102e-06
 Reference value :  8.00155e-06
 Reference value :  8.00203e-06
 Reference value :  8.00247e-06
 Reference value :  8.00297e-06
 Reference value :  8.00351e-06
 Reference value :  8.00409e-06
 Reference value :  8.00461e-06
 Reference value :  8.00564e-06
 Reference value :  8.00619e-06
 Reference value :  8.00683e-06
 Reference value :  8.00757e-06
 Reference value :  8.00848e-06
 Reference value :  8.00979e-06
 Reference value :  8.01067e-06
 Reference value :  8.01167e-06
 Reference value :  8.01281e-06
 Reference value :  8.01371e-06
 Reference value :  8.01461e-06
 Reference value :  8.01559e-06
 Reference value :  8.01661e-06
 Reference value :  8.01763e-06
 Reference value :  8.01879e-06
 Reference value :  8.01999e-06
 Reference value :  8.02190e-06
 Reference value :  8.02393e-06
 Reference value :  8.02799e-06
 Reference value :  8.03537e-06
 Reference value :  8.04696e-06
 Reference value :  8.07014e-06
 Reference value :  8.11133e-06
 Reference value :  8.15744e-06
 Reference value :  8.22606e-06
 Reference value :  8.29232e-06
 Reference value :  8.37075e-06
 Reference value :  8.48160e-06
 Reference value :  8.59739e-06
 Reference value :  8.82896e-06
 Reference value :  9.00050e-06
 Reference value :  9.00055e-06
 Reference value :  9.00065e-06
 Reference value :  9.00085e-06
 Reference value :  9.00100e-06
 Reference value :  9.00103e-06
 Reference value :  9.00110e-06
 Reference value :  9.00124e-06
 Reference value :  9.00145e-06
 Reference value :  9.00167e-06
 Reference value :  9.00213e-06
 Reference value :  9.00261e-06
 Reference value :  9.00310e-06
 Reference value :  9.00377e-06
 Reference value :  9.00449e-06
 Reference value :  9.00502e-06
 Reference value :  9.00564e-06
 Reference value :  9.00622e-06
 Reference value :  9.00701e-06
 Reference value :  9.00785e-06
 Reference value :  9.00952e-06
 Reference value :  9.01505e-06
 Reference value :  9.02095e-06
 Reference value :  9.03276e-06
 Reference value :  9.05634e-06
 Reference value :  9.10348e-06
 Reference value :  9.19776e-06
 Reference value :  9.76346e-06
 Reference value :  1.00000e-05
 Reference value :  1.00001e-05
 Reference value :  1.00003e-05
 Reference value :  1.00005e-05
 Reference value :  1.00005e-05
 Reference value :  1.00006e-05
 Reference value :  1.00007e-05
 Reference value :  1.00010e-05
 Reference value :  1.00015e-05
 Reference value :  1.00020e-05
 Reference value :  1.00025e-05
 Reference value :  1.00035e-05
 Reference value :  1.00042e-05
 Reference value :  1.00048e-05
 Reference value :  1.00056e-05
 Reference value :  1.00064e-05
 Reference value :  1.00071e-05
 Reference value :  1.00088e-05
 Reference value :  1.00098e-05
 Reference value :  1.00107e-05
 Reference value :  1.00118e-05
 Reference value :  1.00154e-05
 Reference value :  1.00243e-05
 Reference value :  1.00495e-05
 Reference value :  1.01433e-05
 Reference value :  1.05185e-05
 Reference value :  1.10005e-05
 Reference value :  1.10008e-05
 Reference value :  1.10010e-05
 Reference value :  1.10011e-05
 Reference value :  1.10014e-05
 Reference value :  1.10021e-05
 Reference value :  1.10026e-05
 Reference value :  1.10031e-05
 Reference value :  1.10045e-05
 Reference value :  1.10050e-05
 Reference value :  1.10063e-05
 Reference value :  1.10079e-05
 Reference value :  1.10088e-05
 Reference value :  1.10109e-05
 Reference value :  1.10148e-05
 Reference value :  1.10234e-05
 Reference value :  1.10439e-05
 Reference value :  1.10946e-05
 Reference value :  1.12532e-05
 Reference value :  1.18878e-05
 Reference value :  1.20000e-05
 Reference value :  1.20003e-05
 Reference value :  1.20005e-05
 Reference value :  1.20006e-05
 Reference value :  1.20007e-05
 Reference value :  1.20010e-05
 Reference value :  1.20015e-05
 Reference value :  1.20020e-05
 Reference value :  1.20025e-05
 Reference value :  1.20035e-05
 Reference value :  1.20046e-05
 Reference value :  1.20052e-05
 Reference value :  1.20056e-05
 Reference value :  1.20062e-05
 Reference value :  1.20076e-05
 Reference value :  1.20085e-05
 Reference value :  1.20098e-05
 Reference value :  1.20107e-05
 Reference value :  1.20117e-05
 Reference value :  1.20128e-05
 Reference value :  1.20137e-05
 Reference value :  1.20146e-05
 Reference value :  1.20156e-05
 Reference value :  1.20166e-05
 Reference value :  1.20176e-05
 Reference value :  1.20188e-05
 Reference value :  1.20200e-05
 Reference value :  1.20219e-05
 Reference value :  1.20239e-05
 Reference value :  1.20350e-05
 Reference value :  1.20644e-05
 Reference value :  1.20944e-05
 Reference value :  1.21068e-05
 Reference value :  1.21127e-05
 Reference value :  1.21184e-05
 Reference value :  1.21241e-05
 Reference value :  1.21327e-05
 Reference value :  1.21443e-05
 Reference value :  1.21572e-05
 Reference value :  1.21715e-05
 Reference value :  1.22002e-05
 Reference value :  1.23109e-05
 Reference value :  1.23871e-05
 Reference value :  1.24502e-05
 Reference value :  1.24893e-05
 Reference value :  1.25328e-05
 Reference value :  1.25754e-05
 Reference value :  1.26922e-05
 Reference value :  1.27732e-05
 Reference value :  1.30005e-05
 Reference value :  1.30006e-05
 Reference value :  1.30009e-05
 Reference value :  1.30010e-05
 Reference value :  1.30010e-05
 Reference value :  1.30011e-05
 Reference value :  1.30012e-05
 Reference value :  1.30014e-05
 Reference value :  1.30017e-05
 Reference value :  1.30021e-05
 Reference value :  1.30026e-05
 Reference value :  1.30038e-05
 Reference value :  1.30044e-05
 Reference value :  1.30050e-05
 Reference value :  1.30062e-05
 Reference value :  1.30071e-05
 Reference value :  1.30080e-05
 Reference value :  1.30120e-05
 Reference value :  1.30222e-05
 Reference value :  1.30356e-05
 Reference value :  1.31121e-05
 Reference value :  1.34182e-05
 Reference value :  1.40000e-05
 Reference value :  1.40002e-05
 Reference value :  1.40004e-05
 Reference value :  1.40005e-05
 Reference value :  1.40005e-05
 Reference value :  1.40006e-05
 Reference value :  1.40010e-05
 Reference value :  1.40015e-05
 Reference value :  1.40020e-05
 Reference value :  1.40025e-05
 Reference value :  1.40030e-05
 Reference value :  1.40035e-05
 Reference value :  1.40042e-05
 Reference value :  1.40048e-05
 Reference value :  1.40055e-05
 Reference value :  1.40064e-05
 Reference value :  1.40071e-05
 Reference value :  1.40088e-05
 Reference value :  1.40097e-05
 Reference value :  1.40107e-05
 Reference value :  1.40118e-05
 Reference value :  1.40131e-05
 Reference value :  1.40153e-05
 Reference value :  1.40242e-05
 Reference value :  1.40493e-05
 Reference value :  1.41430e-05
 Reference value :  1.45178e-05
 Reference value :  1.50005e-05
 Reference value :  1.50007e-05
 Reference value :  1.50009e-05
 Reference value :  1.50010e-05
 Reference value :  1.50010e-05
 Reference value :  1.50011e-05
 Reference value :  1.50012e-05
 Reference value :  1.50014e-05
 Reference value :  1.50017e-05
 Reference value :  1.50021e-05
 Reference value :  1.50026e-05
 Reference value :  1.50031e-05
 Reference value :  1.50038e-05
 Reference value :  1.50045e-05
 Reference value :  1.50050e-05
 Reference value :  1.50056e-05
 Reference value :  1.50063e-05
 Reference value :  1.50071e-05
 Reference value :  1.50079e-05
 Reference value :  1.50088e-05
 Reference value :  1.50109e-05
 Reference value :  1.50148e-05
 Reference value :  1.50234e-05
 Reference value :  1.50311e-05
 Reference value :  1.50637e-05
 Reference value :  1.51479e-05
 Reference value :  1.54662e-05
 Reference value :  1.60000e-05
 Reference value :  1.60001e-05
 Reference value :  1.60004e-05
 Reference value :  1.60005e-05
 Reference value :  1.60005e-05
 Reference value :  1.60007e-05
 Reference value :  1.60010e-05
 Reference value :  1.60015e-05
 Reference value :  1.60020e-05
 Reference value :  1.60025e-05
 Reference value :  1.60030e-05
 Reference value :  1.60035e-05
 Reference value :  1.60041e-05
 Reference value :  1.60046e-05
 Reference value :  1.60052e-05
 Reference value :  1.60056e-05
 Reference value :  1.60062e-05
 Reference value :  1.60068e-05
 Reference value :  1.60076e-05
 Reference value :  1.60085e-05
 Reference value :  1.60098e-05
 Reference value :  1.60107e-05
 Reference value :  1.60117e-05
 Reference value :  1.60128e-05
 Reference value :  1.60137e-05
 Reference value :  1.60146e-05
 Reference value :  1.60156e-05
 Reference value :  1.60166e-05
 Reference value :  1.60176e-05
 Reference value :  1.60188e-05
 Reference value :  1.60199e-05
 Reference value :  1.60238e-05
 Reference value :  1.60277e-05
 Reference value :  1.60312e-05
 Reference value :  1.60345e-05
 Reference value :  1.60368e-05
 Reference value :  1.60392e-05
 Reference value :  1.60444e-05
 Reference value :  1.60488e-05
 Reference value :  1.60582e-05
 Reference value :  1.60760e-05
 Reference value :  1.61162e-05
 Reference value :  1.61994e-05
 Reference value :  1.62823e-05
 Reference value :  1.64197e-05
 Reference value :  1.70005e-05
 Reference value :  1.70006e-05
 Reference value :  1.70009e-05
 Reference value :  1.70010e-05
 Reference value :  1.70010e-05
 Reference value :  1.70011e-05
 Reference value :  1.70012e-05
 Reference value :  1.70014e-05
 Reference value :  1.70017e-05
 Reference value :  1.70021e-05
 Reference value :  1.70026e-05
 Reference value :  1.70031e-05
 Reference value :  1.70038e-05
 Reference value :  1.70045e-05
 Reference value :  1.70050e-05
 Reference value :  1.70057e-05
 Reference value :  1.70070e-05
 Reference value :  1.70095e-05
 Reference value :  1.70151e-05
 Reference value :  1.70332e-05
 Reference value :  1.70568e-05
 Reference value :  1.71982e-05
 Reference value :  1.73867e-05
 Reference value :  1.77638e-05
 Reference value :  1.80001e-05
 Reference value :  1.80002e-05
 Reference value :  1.80004e-05
 Reference value :  1.80005e-05
 Reference value :  1.80006e-05
 Reference value :  1.80007e-05
 Reference value :  1.80010e-05
 Reference value :  1.80015e-05
 Reference value :  1.80020e-05
 Reference value :  1.80025e-05
 Reference value :  1.80030e-05
 Reference value :  1.80035e-05
 Reference value :  1.80041e-05
 Reference value :  1.80047e-05
 Reference value :  1.80062e-05
 Reference value :  1.80068e-05
 Reference value :  1.80076e-05
 Reference value :  1.80095e-05
 Reference value :  1.80104e-05
 Reference value :  1.80115e-05
 Reference value :  1.80151e-05
 Reference value :  1.80268e-05
 Reference value :  1.80694e-05
 Reference value :  1.82350e-05
 Reference value :  1.88972e-05
 Reference value :  1.90006e-05
 Reference value :  1.90009e-05
 Reference value :  1.90010e-05
 Reference value :  1.90010e-05
 Reference value :  1.90011e-05
 Reference value :  1.90014e-05
 Reference value :  1.90017e-05
 Reference value :  1.90026e-05
 Reference value :  1.90031e-05
 Reference value :  1.90038e-05
 Reference value :  1.90045e-05
 Reference value :  1.90050e-05
 Reference value :  1.90063e-05
 Reference value :  1.90079e-05
 Reference value :  1.90118e-05
 Reference value :  1.90213e-05
 Reference value :  1.90568e-05
 Reference value :  1.91020e-05
 Reference value :  1.93734e-05
 Reference value :  2.00000e-05
 Reference value :  2.00002e-05
 Reference value :  2.00004e-05
 Reference value :  2.00005e-05
 Reference value :  2.00005e-05
 Reference value :  2.00007e-05
 Reference value :  2.00015e-05
 Reference value :  2.00020e-05
 Reference value :  2.00025e-05
 Reference value :  2.00035e-05
 Reference value :  2.00046e-05
 Reference value :  2.00052e-05
 Reference value :  2.00056e-05
 Reference value :  2.00069e-05
 Reference value :  2.00090e-05
 Reference value :  2.00106e-05
 Reference value :  2.00120e-05
 Reference value :  2.00135e-05
 Reference value :  2.00146e-05
 Reference value :  2.00155e-05
 Reference value :  2.00165e-05
 Reference value :  2.00176e-05
 Reference value :  2.00190e-05
 Reference value :  2.00223e-05
 Reference value :  2.00294e-05
 Reference value :  2.00355e-05
 Reference value :  2.00494e-05
 Reference value :  2.00574e-05
 Reference value :  2.00630e-05
 Reference value :  2.00686e-05
 Reference value :  2.00767e-05
 Reference value :  2.00961e-05
 Reference value :  2.01105e-05
 Reference value :  2.01291e-05
 Reference value :  2.01463e-05
 Reference value :  2.01573e-05
 Reference value :  2.01693e-05
 Reference value :  2.02026e-05
 Reference value :  2.02791e-05
 Reference value :  2.04475e-05
 Reference value :  2.07293e-05
 Reference value :  2.10005e-05
 Reference value :  2.10006e-05
 Reference value :  2.10008e-05
 Reference value :  2.10010e-05
 Reference value :  2.10010e-05
 Reference value :  2.10011e-05
 Reference value :  2.10012e-05
 Reference value :  2.10014e-05
 Reference value :  2.10021e-05
 Reference value :  2.10026e-05
 Reference value :  2.10031e-05
 Reference value :  2.10038e-05
 Reference value :  2.10045e-05
 Reference value :  2.10050e-05
 Reference value :  2.10057e-05
 Reference value :  2.10063e-05
 Reference value :  2.10071e-05
 Reference value :  2.10096e-05
 Reference value :  2.10152e-05
 Reference value :  2.10213e-05
 Reference value :  2.10572e-05
 Reference value :  2.11990e-05
 Reference value :  2.13881e-05
 Reference value :  2.17662e-05
 Reference value :  2.20000e-05
 Reference value :  2.20004e-05
 Reference value :  2.20005e-05
 Reference value :  2.20005e-05
 Reference value :  2.20007e-05
 Reference value :  2.20015e-05
 Reference value :  2.20020e-05
 Reference value :  2.20025e-05
 Reference value :  2.20030e-05
 Reference value :  2.20035e-05
 Reference value :  2.20041e-05
 Reference value :  2.20047e-05
 Reference value :  2.20053e-05
 Reference value :  2.20062e-05
 Reference value :  2.20068e-05
 Reference value :  2.20076e-05
 Reference value :  2.20086e-05
 Reference value :  2.20095e-05
 Reference value :  2.20104e-05
 Reference value :  2.20115e-05
 Reference value :  2.20127e-05
 Reference value :  2.20192e-05
 Reference value :  2.20267e-05
 Reference value :  2.20690e-05
 Reference value :  2.21237e-05
 Reference value :  2.22331e-05
 Reference value :  2.28896e-05
 Reference value :  2.30005e-05
 Reference value :  2.30006e-05
 Reference value :  2.30010e-05
 Reference value :  2.30010e-05
 Reference value :  2.30011e-05
 Reference value :  2.30012e-05
 Reference value :  2.30014e-05
 Reference value :  2.30017e-05
 Reference value :  2.30021e-05
 Reference value :  2.30026e-05
 Reference value :  2.30031e-05
 Reference value :  2.30038e-05
 Reference value :  2.30045e-05
 Reference value :  2.30050e-05
 Reference value :  2.30056e-05
 Reference value :  2.30063e-05
 Reference value :  2.30071e-05
 Reference value :  2.30079e-05
 Reference value :  2.30118e-05
 Reference value :  2.30213e-05
 Reference value :  2.30567e-05
 Reference value :  2.31020e-05
 Reference value :  2.31926e-05
 Reference value :  2.33738e-05
 Reference value :  2.37362e-05
 Reference value :  2.40001e-05
 Reference value :  2.40002e-05
 Reference value :  2.40004e-05
 Reference value :  2.40005e-05
 Reference value :  2.40005e-05
 Reference value :  2.40006e-05
 Reference value :  2.40007e-05
 Reference value :  2.40010e-05
 Reference value :  2.40015e-05
 Reference value :  2.40020e-05
 Reference value :  2.40025e-05
 Reference value :  2.40030e-05
 Reference value :  2.40035e-05
 Reference value :  2.40041e-05
 Reference value :  2.40046e-05
 Reference value :  2.40052e-05
 Reference value :  2.40056e-05
 Reference value :  2.40062e-05
 Reference value :  2.40069e-05
 Reference value :  2.40076e-05
 Reference value :  2.40090e-05
 Reference value :  2.40106e-05
 Reference value :  2.40120e-05
 Reference value :  2.40135e-05
 Reference value :  2.40146e-05
 Reference value :  2.40155e-05
 Reference value :  2.40165e-05
 Reference value :  2.40176e-05
 Reference value :  2.40190e-05
 Reference value :  2.40203e-05
 Reference value :  2.40247e-05
 Reference value :  2.40295e-05
 Reference value :  2.40360e-05
 Reference value :  2.40433e-05
 Reference value :  2.40512e-05
 Reference value :  2.40586e-05
 Reference value :  2.40654e-05
 Reference value :  2.40727e-05
 Reference value :  2.40803e-05
 Reference value :  2.40956e-05
 Reference value :  2.41114e-05
 Reference value :  2.41438e-05
 Reference value :  2.41800e-05
 Reference value :  2.42394e-05
 Reference value :  2.44720e-05
 Reference value :  2.47233e-05
 Reference value :  2.50005e-05
 Reference value :  2.50005e-05
 Reference value :  2.50006e-05
 Reference value :  2.50008e-05
 Reference value :  2.50010e-05
 Reference value :  2.50010e-05
 Reference value :  2.50011e-05
 Reference value :  2.50012e-05
 Reference value :  2.50014e-05
 Reference value :  2.50017e-05
 Reference value :  2.50021e-05
 Reference value :  2.50026e-05
 Reference value :  2.50031e-05
 Reference value :  2.50038e-05
 Reference value :  2.50044e-05
 Reference value :  2.50050e-05
 Reference value :  2.50062e-05
 Reference value :  2.50071e-05
 Reference value :  2.50079e-05
 Reference value :  2.50096e-05
 Reference value :  2.50119e-05
 Reference value :  2.50217e-05
 Reference value :  2.50580e-05
 Reference value :  2.51995e-05
 Reference value :  2.53881e-05
 Reference value :  2.57653e-05
 Reference value :  2.60000e-05
 Reference value :  2.60002e-05
 Reference value :  2.60004e-05
 Reference value :  2.60005e-05
 Reference value :  2.60005e-05
 Reference value :  2.60006e-05
 Reference value :  2.60007e-05
 Reference value :  2.60010e-05
 Reference value :  2.60015e-05
 Reference value :  2.60020e-05
 Reference value :  2.60025e-05
 Reference value :  2.60030e-05
 Reference value :  2.60035e-05
 Reference value :  2.60042e-05
 Reference value :  2.60048e-05
 Reference value :  2.60056e-05
 Reference value :  2.60065e-05
 Reference value :  2.60071e-05
 Reference value :  2.60079e-05
 Reference value :  2.60088e-05
 Reference value :  2.60098e-05
 Reference value :  2.60107e-05
 Reference value :  2.60118e-05
 Reference value :  2.60131e-05
 Reference value :  2.60154e-05
 Reference value :  2.60186e-05
 Reference value :  2.60242e-05
 Reference value :  2.60335e-05
 Reference value :  2.60488e-05
 Reference value :  2.61404e-05
 Reference value :  2.65070e-05
 Reference value :  2.70005e-05
 Reference value :  2.70006e-05
 Reference value :  2.70007e-05
 Reference value :  2.70009e-05
 Reference value :  2.70010e-05
 Reference value :  2.70010e-05
 Reference value :  2.70011e-05
 Reference value :  2.70014e-05
 Reference value :  2.70017e-05
 Reference value :  2.70021e-05
 Reference value :  2.70026e-05
 Reference value :  2.70031e-05
 Reference value :  2.70038e-05
 Reference value :  2.70045e-05
 Reference value :  2.70050e-05
 Reference value :  2.70056e-05
 Reference value :  2.70071e-05
 Reference value :  2.70079e-05
 Reference value :  2.70088e-05
 Reference value :  2.70097e-05
 Reference value :  2.70109e-05
 Reference value :  2.70127e-05
 Reference value :  2.70147e-05
 Reference value :  2.70180e-05
 Reference value :  2.70233e-05
 Reference value :  2.70437e-05
 Reference value :  2.70941e-05
 Reference value :  2.72496e-05
 Reference value :  2.78712e-05
 Reference value :  2.80000e-05
 Reference value :  2.80001e-05
 Reference value :  2.80004e-05
 Reference value :  2.80005e-05
 Reference value :  2.80005e-05
 Reference value :  2.80006e-05
 Reference value :  2.80007e-05
 Reference value :  2.80015e-05
 Reference value :  2.80020e-05
 Reference value :  2.80025e-05
 Reference value :  2.80030e-05
 Reference value :  2.80035e-05
 Reference value :  2.80041e-05
 Reference value :  2.80046e-05
 Reference value :  2.80052e-05
 Reference value :  2.80056e-05
 Reference value :  2.80062e-05
 Reference value :  2.80068e-05
 Reference value :  2.80076e-05
 Reference value :  2.80085e-05
 Reference value :  2.80107e-05
 Reference value :  2.80117e-05
 Reference value :  2.80128e-05
 Reference value :  2.80137e-05
 Reference value :  2.80146e-05
 Reference value :  2.80156e-05
 Reference value :  2.80166e-05
 Reference value :  2.80177e-05
 Reference value :  2.80190e-05
 Reference value :  2.80203e-05
 Reference value :  2.80219e-05
 Reference value :  2.80236e-05
 Reference value :  2.80253e-05
 Reference value :  2.80275e-05
 Reference value :  2.80301e-05
 Reference value :  2.80350e-05
 Reference value :  2.80395e-05
 Reference value :  2.80545e-05
 Reference value :  2.80724e-05
 Reference value :  2.81571e-05
 Reference value :  2.83409e-05
 Reference value :  2.87955e-05
 Reference value :  2.90005e-05
 Reference value :  2.90006e-05
 Reference value :  2.90007e-05
 Reference value :  2.90009e-05
 Reference value :  2.90010e-05
 Reference value :  2.90010e-05
 Reference value :  2.90011e-05
 Reference value :  2.90012e-05
 Reference value :  2.90014e-05
 Reference value :  2.90017e-05
 Reference value :  2.90021e-05
 Reference value :  2.90026e-05
 Reference value :  2.90031e-05
 Reference value :  2.90038e-05
 Reference value :  2.90045e-05
 Reference value :  2.90050e-05
 Reference value :  2.90057e-05
 Reference value :  2.90063e-05
 Reference value :  2.90070e-05
 Reference value :  2.90079e-05
 Reference value :  2.90118e-05
 Reference value :  2.90151e-05
 Reference value :  2.90332e-05
 Reference value :  2.91030e-05
 Reference value :  2.93821e-05
 Reference value :  2.97543e-05
 Reference value :  3.00000e-05
 Reference value :  3.00001e-05
 Reference value :  3.00002e-05
 Reference value :  3.00004e-05
 Reference value :  3.00005e-05
 Reference value :  3.00005e-05
 Reference value :  3.00006e-05
 Reference value :  3.00007e-05
 Reference value :  3.00010e-05
 Reference value :  3.00015e-05
 Reference value :  3.00020e-05
 Reference value :  3.00025e-05
 Reference value :  3.00030e-05
 Reference value :  3.00035e-05
 Reference value :  3.00041e-05
 Reference value :  3.00047e-05
 Reference value :  3.00053e-05
 Reference value :  3.00062e-05
 Reference value :  3.00068e-05
 Reference value :  3.00076e-05
 Reference value :  3.00086e-05
 Reference value :  3.00095e-05
 Reference value :  3.00104e-05
 Reference value :  3.00115e-05
 Reference value :  3.00127e-05
 Reference value :  3.00151e-05
 Reference value :  3.00192e-05
 Reference value :  3.00415e-05
 Reference value :  3.00687e-05
 Reference value :  3.01230e-05
 Reference value :  3.04490e-05
 Reference value :  3.10005e-05
 Reference value :  3.10005e-05
 Reference value :  3.10006e-05
 Reference value :  3.10008e-05
 Reference value :  3.10010e-05
 Reference value :  3.10010e-05
 Reference value :  3.10011e-05
 Reference value :  3.10012e-05
 Reference value :  3.10014e-05
 Reference value :  3.10017e-05
 Reference value :  3.10021e-05
 Reference value :  3.10026e-05
 Reference value :  3.10031e-05
 Reference value :  3.10038e-05
 Reference value :  3.10045e-05
 Reference value :  3.10050e-05
 Reference value :  3.10056e-05
 Reference value :  3.10063e-05
 Reference value :  3.10071e-05
 Reference value :  3.10079e-05
 Reference value :  3.10118e-05
 Reference value :  3.10152e-05
 Reference value :  3.10213e-05
 Reference value :  3.10336e-05
 Reference value :  3.10566e-05
 Reference value :  3.11019e-05
 Reference value :  3.11924e-05
 Reference value :  3.13734e-05
 Reference value :  3.17354e-05
 Reference value :  3.20000e-05
 Reference value :  3.20001e-05
 Reference value :  3.20003e-05
 Reference value :  3.20005e-05
 Reference value :  3.20005e-05
 Reference value :  3.20006e-05
 Reference value :  3.20007e-05
 Reference value :  3.20010e-05
 Reference value :  3.20015e-05
 Reference value :  3.20020e-05
 Reference value :  3.20025e-05
 Reference value :  3.20030e-05
 Reference value :  3.20035e-05
 Reference value :  3.20041e-05
 Reference value :  3.20046e-05
 Reference value :  3.20052e-05
 Reference value :  3.20056e-05
 Reference value :  3.20062e-05
 Reference value :  3.20069e-05
 Reference value :  3.20076e-05
 Reference value :  3.20083e-05
 Reference value :  3.20091e-05
 Reference value :  3.20101e-05
 Reference value :  3.20111e-05
 Reference value :  3.20132e-05
 Reference value :  3.20173e-05
 Reference value :  3.20247e-05
 Reference value :  3.20397e-05
 Reference value :  3.20695e-05
 Reference value :  3.22448e-05
 Reference value :  3.24786e-05
 Reference value :  3.29461e-05
 Reference value :  3.30005e-05
 Reference value :  3.30006e-05
 Reference value :  3.30007e-05
 Reference value :  3.30009e-05
 Reference value :  3.30010e-05
 Reference value :  3.30010e-05
 Reference value :  3.30011e-05
 Reference value :  3.30012e-05
 Reference value :  3.30015e-05
 Reference value :  3.30017e-05
 Reference value :  3.30022e-05
 Reference value :  3.30027e-05
 Reference value :  3.30032e-05
 Reference value :  3.30039e-05
 Reference value :  3.30046e-05
 Reference value :  3.30056e-05
 Reference value :  3.30065e-05
 Reference value :  3.30075e-05
 Reference value :  3.30090e-05
 Reference value :  3.30106e-05
 Reference value :  3.30134e-05
 Reference value :  3.30177e-05
 Reference value :  3.30263e-05
 Reference value :  3.30435e-05
 Reference value :  3.30779e-05
 Reference value :  3.31467e-05
 Reference value :  3.35593e-05
 Reference value :  3.40000e-05
No. of Data Rows : 1269
ngspice-44 done
