
Note: Compatibility modes selected: hs a


Circuit: ** sch_path: /home/ece/cace/sar-adc-using-sky130-pdk/runs/run_2025-09-12_19-26-06/parameters/sndr/run_0/sndr_enob_fom.sch

option SCALE: Scale is set to 1e-06 for instance and model parameters
option SCALE: Scale is set to 1e-06 for instance and model parameters
option SCALE: Scale is set to 1e-06 for instance and model parameters
option SCALE: Scale is set to 1e-06 for instance and model parameters
Doing analysis at TEMP = 27.000000 and TNOM = 27.000000

Using KLU as Direct Linear Solver
Operating point simulation skipped by 'uic',
  now using transient initial conditions.
 Reference value :  1.00000e-12
 Reference value :  1.02772e-12
 Reference value :  1.08316e-12
 Reference value :  1.19404e-12
 Reference value :  1.33846e-12
 Reference value :  1.62729e-12
 Reference value :  2.20497e-12
 Reference value :  3.05894e-12
 Reference value :  3.96133e-12
 Reference value :  5.17446e-12
 Reference value :  6.88993e-12
 Reference value :  1.02498e-11
 Reference value :  1.40881e-11
 Reference value :  2.09030e-11
 Reference value :  2.76842e-11
 Reference value :  3.67788e-11
 Reference value :  4.81124e-11
 Reference value :  6.54230e-11
 Reference value :  8.50997e-11
 Reference value :  1.00000e-10
 Reference value :  1.01265e-10
 Reference value :  1.03794e-10
 Reference value :  1.08854e-10
 Reference value :  1.18972e-10
 Reference value :  1.39209e-10
 Reference value :  1.79682e-10
 Reference value :  2.60629e-10
 Reference value :  4.12345e-10
 Reference value :  5.78700e-10
 Reference value :  8.47952e-10
 Reference value :  1.19426e-09
 Reference value :  1.66010e-09
 Reference value :  2.27274e-09
 Reference value :  3.09638e-09
 Reference value :  3.92715e-09
 Reference value :  4.64392e-09
 Reference value :  5.53104e-09
 Reference value :  6.60463e-09
 Reference value :  7.61688e-09
 Reference value :  9.43146e-09
 Reference value :  1.11776e-08
 Reference value :  1.46697e-08
 Reference value :  1.78857e-08
 Reference value :  2.07076e-08
 Reference value :  2.38319e-08
 Reference value :  2.87678e-08
 Reference value :  3.26279e-08
 Reference value :  3.61841e-08
 Reference value :  3.95719e-08
 Reference value :  4.34518e-08
 Reference value :  4.95517e-08
 Reference value :  5.70666e-08
 Reference value :  7.20965e-08
 Reference value :  1.02156e-07
 Reference value :  1.60354e-07
 Reference value :  2.23311e-07
 Reference value :  2.50100e-07
 Reference value :  2.50110e-07
 Reference value :  2.50130e-07
 Reference value :  2.50170e-07
 Reference value :  2.50200e-07
 Reference value :  2.50201e-07
 Reference value :  2.50202e-07
 Reference value :  2.50204e-07
 Reference value :  2.50208e-07
 Reference value :  2.50216e-07
 Reference value :  2.50233e-07
 Reference value :  2.50266e-07
 Reference value :  2.50333e-07
 Reference value :  2.50410e-07
 Reference value :  2.50565e-07
 Reference value :  2.50712e-07
 Reference value :  2.51007e-07
 Reference value :  2.51337e-07
 Reference value :  2.51818e-07
 Reference value :  2.52369e-07
 Reference value :  2.52973e-07
 Reference value :  2.53865e-07
 Reference value :  2.54616e-07
 Reference value :  2.55425e-07
 Reference value :  2.56213e-07
 Reference value :  2.57069e-07
 Reference value :  2.57894e-07
 Reference value :  2.59396e-07
 Reference value :  2.61438e-07
 Reference value :  2.63592e-07
 Reference value :  2.67010e-07
 Reference value :  2.71802e-07
 Reference value :  2.81386e-07
 Reference value :  3.00555e-07
 Reference value :  3.36452e-07
 Reference value :  4.08247e-07
 Reference value :  5.00000e-07
 Reference value :  5.00010e-07
 Reference value :  5.00030e-07
 Reference value :  5.00070e-07
 Reference value :  5.00100e-07
 Reference value :  5.00104e-07
 Reference value :  5.00113e-07
 Reference value :  5.00130e-07
 Reference value :  5.00163e-07
 Reference value :  5.00231e-07
 Reference value :  5.00366e-07
 Reference value :  5.00553e-07
 Reference value :  5.00927e-07
 Reference value :  5.01510e-07
 Reference value :  5.02042e-07
 Reference value :  5.02618e-07
 Reference value :  5.03247e-07
 Reference value :  5.04059e-07
 Reference value :  5.04791e-07
 Reference value :  5.05614e-07
 Reference value :  5.06653e-07
 Reference value :  5.07722e-07
 Reference value :  5.09650e-07
 Reference value :  5.12140e-07
 Reference value :  5.13891e-07
 Reference value :  5.15917e-07
 Reference value :  5.18209e-07
 Reference value :  5.20532e-07
 Reference value :  5.23143e-07
 Reference value :  5.27750e-07
 Reference value :  5.34270e-07
 Reference value :  5.44456e-07
 Reference value :  5.64678e-07
 Reference value :  5.96362e-07
 Reference value :  6.57207e-07
 Reference value :  7.50100e-07
 Reference value :  7.50110e-07
 Reference value :  7.50130e-07
 Reference value :  7.50170e-07
 Reference value :  7.50200e-07
 Reference value :  7.50201e-07
 Reference value :  7.50202e-07
 Reference value :  7.50205e-07
 Reference value :  7.50211e-07
 Reference value :  7.50223e-07
 Reference value :  7.50247e-07
 Reference value :  7.50295e-07
 Reference value :  7.50390e-07
 Reference value :  7.50580e-07
 Reference value :  7.50954e-07
 Reference value :  7.51429e-07
 Reference value :  7.51992e-07
 Reference value :  7.52594e-07
 Reference value :  7.53250e-07
 Reference value :  7.54105e-07
 Reference value :  7.54726e-07
 Reference value :  7.55454e-07
 Reference value :  7.56124e-07
 Reference value :  7.56857e-07
 Reference value :  7.57770e-07
 Reference value :  7.58766e-07
 Reference value :  7.59797e-07
 Reference value :  7.61313e-07
 Reference value :  7.62882e-07
 Reference value :  7.65189e-07
 Reference value :  7.67902e-07
 Reference value :  7.72090e-07
 Reference value :  7.80466e-07
 Reference value :  7.92921e-07
 Reference value :  8.17831e-07
 Reference value :  8.67650e-07
 Reference value :  9.67290e-07
 Reference value :  1.00000e-06
 Reference value :  1.00001e-06
 Reference value :  1.00003e-06
 Reference value :  1.00007e-06
 Reference value :  1.00010e-06
 Reference value :  1.00010e-06
 Reference value :  1.00011e-06
 Reference value :  1.00013e-06
 Reference value :  1.00016e-06
 Reference value :  1.00023e-06
 Reference value :  1.00037e-06
 Reference value :  1.00055e-06
 Reference value :  1.00093e-06
 Reference value :  1.00151e-06
 Reference value :  1.00204e-06
 Reference value :  1.00261e-06
 Reference value :  1.00329e-06
 Reference value :  1.00407e-06
 Reference value :  1.00484e-06
 Reference value :  1.00553e-06
 Reference value :  1.00624e-06
 Reference value :  1.00696e-06
 Reference value :  1.00774e-06
 Reference value :  1.00853e-06
 Reference value :  1.00963e-06
 Reference value :  1.01103e-06
 Reference value :  1.01321e-06
 Reference value :  1.01469e-06
 Reference value :  1.01633e-06
 Reference value :  1.01798e-06
 Reference value :  1.01944e-06
 Reference value :  1.02059e-06
 Reference value :  1.02182e-06
 Reference value :  1.02322e-06
 Reference value :  1.02478e-06
 Reference value :  1.02639e-06
 Reference value :  1.02900e-06
 Reference value :  1.03200e-06
 Reference value :  1.03801e-06
 Reference value :  1.04807e-06
 Reference value :  1.06488e-06
 Reference value :  1.09282e-06
 Reference value :  1.14798e-06
 Reference value :  1.21062e-06
 Reference value :  1.25010e-06
 Reference value :  1.25011e-06
 Reference value :  1.25013e-06
 Reference value :  1.25017e-06
 Reference value :  1.25020e-06
 Reference value :  1.25020e-06
 Reference value :  1.25020e-06
 Reference value :  1.25021e-06
 Reference value :  1.25021e-06
 Reference value :  1.25022e-06
 Reference value :  1.25025e-06
 Reference value :  1.25029e-06
 Reference value :  1.25039e-06
 Reference value :  1.25057e-06
 Reference value :  1.25090e-06
 Reference value :  1.25140e-06
 Reference value :  1.25202e-06
 Reference value :  1.25261e-06
 Reference value :  1.25328e-06
 Reference value :  1.25410e-06
 Reference value :  1.25470e-06
 Reference value :  1.25539e-06
 Reference value :  1.25628e-06
 Reference value :  1.25712e-06
 Reference value :  1.25824e-06
 Reference value :  1.26017e-06
 Reference value :  1.26209e-06
 Reference value :  1.26518e-06
 Reference value :  1.26905e-06
 Reference value :  1.27680e-06
 Reference value :  1.29229e-06
 Reference value :  1.32327e-06
 Reference value :  1.38524e-06
 Reference value :  1.47677e-06
 Reference value :  1.50000e-06
 Reference value :  1.50001e-06
 Reference value :  1.50003e-06
 Reference value :  1.50007e-06
 Reference value :  1.50010e-06
 Reference value :  1.50010e-06
 Reference value :  1.50011e-06
 Reference value :  1.50013e-06
 Reference value :  1.50016e-06
 Reference value :  1.50023e-06
 Reference value :  1.50036e-06
 Reference value :  1.50054e-06
 Reference value :  1.50089e-06
 Reference value :  1.50139e-06
 Reference value :  1.50190e-06
 Reference value :  1.50240e-06
 Reference value :  1.50303e-06
 Reference value :  1.50367e-06
 Reference value :  1.50454e-06
 Reference value :  1.50535e-06
 Reference value :  1.50630e-06
 Reference value :  1.50761e-06
 Reference value :  1.50906e-06
 Reference value :  1.51045e-06
 Reference value :  1.51188e-06
 Reference value :  1.51319e-06
 Reference value :  1.51462e-06
 Reference value :  1.51603e-06
 Reference value :  1.51768e-06
 Reference value :  1.52097e-06
 Reference value :  1.52622e-06
 Reference value :  1.53671e-06
 Reference value :  1.55770e-06
 Reference value :  1.59968e-06
 Reference value :  1.68363e-06
 Reference value :  1.75010e-06
 Reference value :  1.75011e-06
 Reference value :  1.75013e-06
 Reference value :  1.75017e-06
 Reference value :  1.75020e-06
 Reference value :  1.75020e-06
 Reference value :  1.75020e-06
 Reference value :  1.75021e-06
 Reference value :  1.75021e-06
 Reference value :  1.75022e-06
 Reference value :  1.75025e-06
 Reference value :  1.75029e-06
 Reference value :  1.75039e-06
 Reference value :  1.75058e-06
 Reference value :  1.75091e-06
 Reference value :  1.75141e-06
 Reference value :  1.75204e-06
 Reference value :  1.75262e-06
 Reference value :  1.75330e-06
 Reference value :  1.75415e-06
 Reference value :  1.75475e-06
 Reference value :  1.75545e-06
 Reference value :  1.75615e-06
 Reference value :  1.75688e-06
 Reference value :  1.75783e-06
 Reference value :  1.75886e-06
 Reference value :  1.76004e-06
 Reference value :  1.76145e-06
 Reference value :  1.76351e-06
 Reference value :  1.76556e-06
 Reference value :  1.76910e-06
 Reference value :  1.77357e-06
 Reference value :  1.78252e-06
 Reference value :  1.80041e-06
 Reference value :  1.83619e-06
 Reference value :  1.90775e-06
 Reference value :  2.00000e-06
 Reference value :  2.00001e-06
 Reference value :  2.00003e-06
 Reference value :  2.00007e-06
 Reference value :  2.00010e-06
 Reference value :  2.00010e-06
 Reference value :  2.00011e-06
 Reference value :  2.00013e-06
 Reference value :  2.00016e-06
 Reference value :  2.00023e-06
 Reference value :  2.00036e-06
 Reference value :  2.00054e-06
 Reference value :  2.00089e-06
 Reference value :  2.00139e-06
 Reference value :  2.00190e-06
 Reference value :  2.00243e-06
 Reference value :  2.00309e-06
 Reference value :  2.00375e-06
 Reference value :  2.00452e-06
 Reference value :  2.00515e-06
 Reference value :  2.00585e-06
 Reference value :  2.00653e-06
 Reference value :  2.00722e-06
 Reference value :  2.00797e-06
 Reference value :  2.00886e-06
 Reference value :  2.00988e-06
 Reference value :  2.01149e-06
 Reference value :  2.01378e-06
 Reference value :  2.01532e-06
 Reference value :  2.01706e-06
 Reference value :  2.01870e-06
 Reference value :  2.01995e-06
 Reference value :  2.02112e-06
 Reference value :  2.02221e-06
 Reference value :  2.02347e-06
 Reference value :  2.02497e-06
 Reference value :  2.02646e-06
 Reference value :  2.02899e-06
 Reference value :  2.03202e-06
 Reference value :  2.03808e-06
 Reference value :  2.04805e-06
 Reference value :  2.06092e-06
 Reference value :  2.08527e-06
 Reference value :  2.12476e-06
 Reference value :  2.17902e-06
 Reference value :  2.25010e-06
 Reference value :  2.25011e-06
 Reference value :  2.25013e-06
 Reference value :  2.25017e-06
 Reference value :  2.25020e-06
 Reference value :  2.25020e-06
 Reference value :  2.25020e-06
 Reference value :  2.25021e-06
 Reference value :  2.25021e-06
 Reference value :  2.25022e-06
 Reference value :  2.25025e-06
 Reference value :  2.25029e-06
 Reference value :  2.25039e-06
 Reference value :  2.25058e-06
 Reference value :  2.25091e-06
 Reference value :  2.25141e-06
 Reference value :  2.25198e-06
 Reference value :  2.25258e-06
 Reference value :  2.25323e-06
 Reference value :  2.25406e-06
 Reference value :  2.25467e-06
 Reference value :  2.25538e-06
 Reference value :  2.25618e-06
 Reference value :  2.25700e-06
 Reference value :  2.25810e-06
 Reference value :  2.25980e-06
 Reference value :  2.26176e-06
 Reference value :  2.26453e-06
 Reference value :  2.26839e-06
 Reference value :  2.27611e-06
 Reference value :  2.29156e-06
 Reference value :  2.32245e-06
 Reference value :  2.37510e-06
 Reference value :  2.43204e-06
 Reference value :  2.49549e-06
 Reference value :  2.50000e-06
 Reference value :  2.50001e-06
 Reference value :  2.50003e-06
 Reference value :  2.50007e-06
 Reference value :  2.50010e-06
 Reference value :  2.50010e-06
 Reference value :  2.50011e-06
 Reference value :  2.50013e-06
 Reference value :  2.50016e-06
 Reference value :  2.50023e-06
 Reference value :  2.50037e-06
 Reference value :  2.50054e-06
 Reference value :  2.50090e-06
 Reference value :  2.50140e-06
 Reference value :  2.50191e-06
 Reference value :  2.50242e-06
 Reference value :  2.50304e-06
 Reference value :  2.50370e-06
 Reference value :  2.50456e-06
 Reference value :  2.50537e-06
 Reference value :  2.50630e-06
 Reference value :  2.50761e-06
 Reference value :  2.50905e-06
 Reference value :  2.51042e-06
 Reference value :  2.51186e-06
 Reference value :  2.51317e-06
 Reference value :  2.51458e-06
 Reference value :  2.51598e-06
 Reference value :  2.51763e-06
 Reference value :  2.52091e-06
 Reference value :  2.52593e-06
 Reference value :  2.53596e-06
 Reference value :  2.55602e-06
 Reference value :  2.59614e-06
 Reference value :  2.67638e-06
 Reference value :  2.75010e-06
 Reference value :  2.75011e-06
 Reference value :  2.75013e-06
 Reference value :  2.75017e-06
 Reference value :  2.75020e-06
 Reference value :  2.75020e-06
 Reference value :  2.75020e-06
 Reference value :  2.75021e-06
 Reference value :  2.75021e-06
 Reference value :  2.75022e-06
 Reference value :  2.75025e-06
 Reference value :  2.75029e-06
 Reference value :  2.75039e-06
 Reference value :  2.75058e-06
 Reference value :  2.75091e-06
 Reference value :  2.75140e-06
 Reference value :  2.75198e-06
 Reference value :  2.75258e-06
 Reference value :  2.75323e-06
 Reference value :  2.75407e-06
 Reference value :  2.75468e-06
 Reference value :  2.75540e-06
 Reference value :  2.75605e-06
 Reference value :  2.75678e-06
 Reference value :  2.75767e-06
 Reference value :  2.75867e-06
 Reference value :  2.75970e-06
 Reference value :  2.76119e-06
 Reference value :  2.76285e-06
 Reference value :  2.76514e-06
 Reference value :  2.76797e-06
 Reference value :  2.77219e-06
 Reference value :  2.78064e-06
 Reference value :  2.79682e-06
 Reference value :  2.82918e-06
 Reference value :  2.89389e-06
 Reference value :  3.00000e-06
 Reference value :  3.00001e-06
 Reference value :  3.00003e-06
 Reference value :  3.00007e-06
 Reference value :  3.00010e-06
 Reference value :  3.00010e-06
 Reference value :  3.00011e-06
 Reference value :  3.00013e-06
 Reference value :  3.00016e-06
 Reference value :  3.00023e-06
 Reference value :  3.00036e-06
 Reference value :  3.00054e-06
 Reference value :  3.00089e-06
 Reference value :  3.00139e-06
 Reference value :  3.00190e-06
 Reference value :  3.00243e-06
 Reference value :  3.00309e-06
 Reference value :  3.00375e-06
 Reference value :  3.00452e-06
 Reference value :  3.00515e-06
 Reference value :  3.00585e-06
 Reference value :  3.00654e-06
 Reference value :  3.00723e-06
 Reference value :  3.00797e-06
 Reference value :  3.00889e-06
 Reference value :  3.00988e-06
 Reference value :  3.01155e-06
 Reference value :  3.01316e-06
 Reference value :  3.01461e-06
 Reference value :  3.01613e-06
 Reference value :  3.01769e-06
 Reference value :  3.01890e-06
 Reference value :  3.02007e-06
 Reference value :  3.02152e-06
 Reference value :  3.02289e-06
 Reference value :  3.02421e-06
 Reference value :  3.02588e-06
 Reference value :  3.02811e-06
 Reference value :  3.03039e-06
 Reference value :  3.03449e-06
 Reference value :  3.04026e-06
 Reference value :  3.04960e-06
 Reference value :  3.06526e-06
 Reference value :  3.08976e-06
 Reference value :  3.13665e-06
 Reference value :  3.19051e-06
 Reference value :  3.22366e-06
 Reference value :  3.25010e-06
 Reference value :  3.25011e-06
 Reference value :  3.25013e-06
 Reference value :  3.25017e-06
 Reference value :  3.25020e-06
 Reference value :  3.25020e-06
 Reference value :  3.25020e-06
 Reference value :  3.25021e-06
 Reference value :  3.25021e-06
 Reference value :  3.25022e-06
 Reference value :  3.25025e-06
 Reference value :  3.25029e-06
 Reference value :  3.25039e-06
 Reference value :  3.25058e-06
 Reference value :  3.25091e-06
 Reference value :  3.25140e-06
 Reference value :  3.25198e-06
 Reference value :  3.25258e-06
 Reference value :  3.25323e-06
 Reference value :  3.25406e-06
 Reference value :  3.25467e-06
 Reference value :  3.25538e-06
 Reference value :  3.25618e-06
 Reference value :  3.25699e-06
 Reference value :  3.25810e-06
 Reference value :  3.25980e-06
 Reference value :  3.26176e-06
 Reference value :  3.26453e-06
 Reference value :  3.26839e-06
 Reference value :  3.27612e-06
 Reference value :  3.29157e-06
 Reference value :  3.32248e-06
 Reference value :  3.38431e-06
 Reference value :  3.50000e-06
 Reference value :  3.50001e-06
 Reference value :  3.50003e-06
 Reference value :  3.50007e-06
 Reference value :  3.50010e-06
 Reference value :  3.50010e-06
 Reference value :  3.50011e-06
 Reference value :  3.50013e-06
 Reference value :  3.50016e-06
 Reference value :  3.50023e-06
 Reference value :  3.50037e-06
 Reference value :  3.50054e-06
 Reference value :  3.50090e-06
 Reference value :  3.50140e-06
 Reference value :  3.50191e-06
 Reference value :  3.50242e-06
 Reference value :  3.50304e-06
 Reference value :  3.50370e-06
 Reference value :  3.50456e-06
 Reference value :  3.50535e-06
 Reference value :  3.50630e-06
 Reference value :  3.50743e-06
 Reference value :  3.50872e-06
 Reference value :  3.50987e-06
 Reference value :  3.51106e-06
 Reference value :  3.51250e-06
 Reference value :  3.51408e-06
 Reference value :  3.51569e-06
 Reference value :  3.51758e-06
 Reference value :  3.52103e-06
 Reference value :  3.52604e-06
 Reference value :  3.53574e-06
 Reference value :  3.55407e-06
 Reference value :  3.58800e-06
 Reference value :  3.65588e-06
 Reference value :  3.75010e-06
 Reference value :  3.75011e-06
 Reference value :  3.75013e-06
 Reference value :  3.75017e-06
 Reference value :  3.75020e-06
 Reference value :  3.75020e-06
 Reference value :  3.75020e-06
 Reference value :  3.75021e-06
 Reference value :  3.75021e-06
 Reference value :  3.75022e-06
 Reference value :  3.75025e-06
 Reference value :  3.75029e-06
 Reference value :  3.75039e-06
 Reference value :  3.75058e-06
 Reference value :  3.75091e-06
 Reference value :  3.75140e-06
 Reference value :  3.75198e-06
 Reference value :  3.75258e-06
 Reference value :  3.75322e-06
 Reference value :  3.75407e-06
 Reference value :  3.75469e-06
 Reference value :  3.75540e-06
 Reference value :  3.75605e-06
 Reference value :  3.75678e-06
 Reference value :  3.75767e-06
 Reference value :  3.75867e-06
 Reference value :  3.75970e-06
 Reference value :  3.76119e-06
 Reference value :  3.76286e-06
 Reference value :  3.76514e-06
 Reference value :  3.76798e-06
 Reference value :  3.77220e-06
 Reference value :  3.78066e-06
 Reference value :  3.79718e-06
 Reference value :  3.83023e-06
 Reference value :  3.89634e-06
 Reference value :  4.00000e-06
 Reference value :  4.00001e-06
 Reference value :  4.00003e-06
 Reference value :  4.00007e-06
 Reference value :  4.00010e-06
 Reference value :  4.00010e-06
 Reference value :  4.00011e-06
 Reference value :  4.00013e-06
 Reference value :  4.00016e-06
 Reference value :  4.00023e-06
 Reference value :  4.00036e-06
 Reference value :  4.00054e-06
 Reference value :  4.00089e-06
 Reference value :  4.00139e-06
 Reference value :  4.00190e-06
 Reference value :  4.00243e-06
 Reference value :  4.00309e-06
 Reference value :  4.00375e-06
 Reference value :  4.00452e-06
 Reference value :  4.00515e-06
 Reference value :  4.00584e-06
 Reference value :  4.00653e-06
 Reference value :  4.00720e-06
 Reference value :  4.00793e-06
 Reference value :  4.00888e-06
 Reference value :  4.00986e-06
 Reference value :  4.01133e-06
 Reference value :  4.01254e-06
 Reference value :  4.01383e-06
 Reference value :  4.01514e-06
 Reference value :  4.01658e-06
 Reference value :  4.01797e-06
 Reference value :  4.01900e-06
 Reference value :  4.02004e-06
 Reference value :  4.02126e-06
 Reference value :  4.02243e-06
 Reference value :  4.02363e-06
 Reference value :  4.02504e-06
 Reference value :  4.02700e-06
 Reference value :  4.02910e-06
 Reference value :  4.03260e-06
 Reference value :  4.03848e-06
 Reference value :  4.04708e-06
 Reference value :  4.06247e-06
 Reference value :  4.08658e-06
 Reference value :  4.10916e-06
 Reference value :  4.12632e-06
 Reference value :  4.13837e-06
 Reference value :  4.15164e-06
 Reference value :  4.16579e-06
 Reference value :  4.17891e-06
 Reference value :  4.19273e-06
 Reference value :  4.20612e-06
 Reference value :  4.21897e-06
 Reference value :  4.23518e-06
 Reference value :  4.25010e-06
 Reference value :  4.25011e-06
 Reference value :  4.25013e-06
 Reference value :  4.25017e-06
 Reference value :  4.25020e-06
 Reference value :  4.25020e-06
 Reference value :  4.25020e-06
 Reference value :  4.25021e-06
 Reference value :  4.25021e-06
 Reference value :  4.25022e-06
 Reference value :  4.25025e-06
 Reference value :  4.25029e-06
 Reference value :  4.25039e-06
 Reference value :  4.25058e-06
 Reference value :  4.25091e-06
 Reference value :  4.25140e-06
 Reference value :  4.25204e-06
 Reference value :  4.25261e-06
 Reference value :  4.25330e-06
 Reference value :  4.25414e-06
 Reference value :  4.25474e-06
 Reference value :  4.25543e-06
 Reference value :  4.25628e-06
 Reference value :  4.25719e-06
 Reference value :  4.25823e-06
 Reference value :  4.26030e-06
 Reference value :  4.26219e-06
 Reference value :  4.26541e-06
 Reference value :  4.26926e-06
 Reference value :  4.27695e-06
 Reference value :  4.29233e-06
 Reference value :  4.31276e-06
 Reference value :  4.33511e-06
 Reference value :  4.35729e-06
 Reference value :  4.38470e-06
 Reference value :  4.43286e-06
 Reference value :  4.50000e-06
 Reference value :  4.50001e-06
 Reference value :  4.50003e-06
 Reference value :  4.50007e-06
 Reference value :  4.50010e-06
 Reference value :  4.50010e-06
 Reference value :  4.50011e-06
 Reference value :  4.50013e-06
 Reference value :  4.50016e-06
 Reference value :  4.50023e-06
 Reference value :  4.50036e-06
 Reference value :  4.50054e-06
 Reference value :  4.50089e-06
 Reference value :  4.50139e-06
 Reference value :  4.50190e-06
 Reference value :  4.50240e-06
 Reference value :  4.50302e-06
 Reference value :  4.50367e-06
 Reference value :  4.50444e-06
 Reference value :  4.50524e-06
 Reference value :  4.50610e-06
 Reference value :  4.50728e-06
 Reference value :  4.50867e-06
 Reference value :  4.50985e-06
 Reference value :  4.51107e-06
 Reference value :  4.51221e-06
 Reference value :  4.51354e-06
 Reference value :  4.51488e-06
 Reference value :  4.51639e-06
 Reference value :  4.51940e-06
 Reference value :  4.52543e-06
 Reference value :  4.53589e-06
 Reference value :  4.55681e-06
 Reference value :  4.59866e-06
 Reference value :  4.68235e-06
 Reference value :  4.75010e-06
 Reference value :  4.75011e-06
 Reference value :  4.75013e-06
 Reference value :  4.75017e-06
 Reference value :  4.75020e-06
 Reference value :  4.75020e-06
 Reference value :  4.75020e-06
 Reference value :  4.75021e-06
 Reference value :  4.75021e-06
 Reference value :  4.75022e-06
 Reference value :  4.75025e-06
 Reference value :  4.75029e-06
 Reference value :  4.75039e-06
 Reference value :  4.75058e-06
 Reference value :  4.75091e-06
 Reference value :  4.75140e-06
 Reference value :  4.75204e-06
 Reference value :  4.75261e-06
 Reference value :  4.75330e-06
 Reference value :  4.75415e-06
 Reference value :  4.75475e-06
 Reference value :  4.75545e-06
 Reference value :  4.75614e-06
 Reference value :  4.75687e-06
 Reference value :  4.75784e-06
 Reference value :  4.75889e-06
 Reference value :  4.76009e-06
 Reference value :  4.76150e-06
 Reference value :  4.76364e-06
 Reference value :  4.76565e-06
 Reference value :  4.76933e-06
 Reference value :  4.77388e-06
 Reference value :  4.78298e-06
 Reference value :  4.80118e-06
 Reference value :  4.83758e-06
 Reference value :  4.91038e-06
 Reference value :  5.00000e-06
 Reference value :  5.00001e-06
 Reference value :  5.00003e-06
 Reference value :  5.00007e-06
 Reference value :  5.00010e-06
 Reference value :  5.00010e-06
 Reference value :  5.00011e-06
 Reference value :  5.00013e-06
 Reference value :  5.00016e-06
 Reference value :  5.00023e-06
 Reference value :  5.00036e-06
 Reference value :  5.00054e-06
 Reference value :  5.00089e-06
 Reference value :  5.00138e-06
 Reference value :  5.00189e-06
 Reference value :  5.00243e-06
 Reference value :  5.00309e-06
 Reference value :  5.00374e-06
 Reference value :  5.00451e-06
 Reference value :  5.00514e-06
 Reference value :  5.00584e-06
 Reference value :  5.00652e-06
 Reference value :  5.00720e-06
 Reference value :  5.00792e-06
 Reference value :  5.00898e-06
 Reference value :  5.00994e-06
 Reference value :  5.01179e-06
 Reference value :  5.01294e-06
 Reference value :  5.01429e-06
 Reference value :  5.01568e-06
 Reference value :  5.01719e-06
 Reference value :  5.01868e-06
 Reference value :  5.02004e-06
 Reference value :  5.02153e-06
 Reference value :  5.02286e-06
 Reference value :  5.02424e-06
 Reference value :  5.02589e-06
 Reference value :  5.02804e-06
 Reference value :  5.03032e-06
 Reference value :  5.03422e-06
 Reference value :  5.03977e-06
 Reference value :  5.04487e-06
 Reference value :  5.04848e-06
 Reference value :  5.05189e-06
 Reference value :  5.05475e-06
 Reference value :  5.05831e-06
 Reference value :  5.06375e-06
 Reference value :  5.06970e-06
 Reference value :  5.07904e-06
 Reference value :  5.09180e-06
 Reference value :  5.10825e-06
 Reference value :  5.13118e-06
 Reference value :  5.16887e-06
 Reference value :  5.22976e-06
 Reference value :  5.25010e-06
 Reference value :  5.25011e-06
 Reference value :  5.25013e-06
 Reference value :  5.25017e-06
 Reference value :  5.25020e-06
 Reference value :  5.25020e-06
 Reference value :  5.25020e-06
 Reference value :  5.25021e-06
 Reference value :  5.25021e-06
 Reference value :  5.25022e-06
 Reference value :  5.25025e-06
 Reference value :  5.25029e-06
 Reference value :  5.25039e-06
 Reference value :  5.25057e-06
 Reference value :  5.25090e-06
 Reference value :  5.25139e-06
 Reference value :  5.25201e-06
 Reference value :  5.25260e-06
 Reference value :  5.25328e-06
 Reference value :  5.25413e-06
 Reference value :  5.25474e-06
 Reference value :  5.25545e-06
 Reference value :  5.25637e-06
 Reference value :  5.25725e-06
 Reference value :  5.25836e-06
 Reference value :  5.26043e-06
 Reference value :  5.26237e-06
 Reference value :  5.26569e-06
 Reference value :  5.26967e-06
 Reference value :  5.27764e-06
 Reference value :  5.29358e-06
 Reference value :  5.32547e-06
 Reference value :  5.38923e-06
 Reference value :  5.50000e-06
 Reference value :  5.50001e-06
 Reference value :  5.50003e-06
 Reference value :  5.50007e-06
 Reference value :  5.50010e-06
 Reference value :  5.50010e-06
 Reference value :  5.50011e-06
 Reference value :  5.50013e-06
 Reference value :  5.50016e-06
 Reference value :  5.50023e-06
 Reference value :  5.50037e-06
 Reference value :  5.50054e-06
 Reference value :  5.50090e-06
 Reference value :  5.50139e-06
 Reference value :  5.50191e-06
 Reference value :  5.50245e-06
 Reference value :  5.50312e-06
 Reference value :  5.50378e-06
 Reference value :  5.50452e-06
 Reference value :  5.50540e-06
 Reference value :  5.50621e-06
 Reference value :  5.50750e-06
 Reference value :  5.50883e-06
 Reference value :  5.51008e-06
 Reference value :  5.51150e-06
 Reference value :  5.51283e-06
 Reference value :  5.51421e-06
 Reference value :  5.51575e-06
 Reference value :  5.51748e-06
 Reference value :  5.52056e-06
 Reference value :  5.52508e-06
 Reference value :  5.53369e-06
 Reference value :  5.54971e-06
 Reference value :  5.57953e-06
 Reference value :  5.63898e-06
 Reference value :  5.75010e-06
 Reference value :  5.75011e-06
 Reference value :  5.75013e-06
 Reference value :  5.75017e-06
 Reference value :  5.75020e-06
 Reference value :  5.75020e-06
 Reference value :  5.75020e-06
 Reference value :  5.75021e-06
 Reference value :  5.75021e-06
 Reference value :  5.75022e-06
 Reference value :  5.75025e-06
 Reference value :  5.75029e-06
 Reference value :  5.75039e-06
 Reference value :  5.75058e-06
 Reference value :  5.75091e-06
 Reference value :  5.75141e-06
 Reference value :  5.75204e-06
 Reference value :  5.75261e-06
 Reference value :  5.75330e-06
 Reference value :  5.75414e-06
 Reference value :  5.75474e-06
 Reference value :  5.75544e-06
 Reference value :  5.75612e-06
 Reference value :  5.75685e-06
 Reference value :  5.75779e-06
 Reference value :  5.75884e-06
 Reference value :  5.76093e-06
 Reference value :  5.76309e-06
 Reference value :  5.76686e-06
 Reference value :  5.77163e-06
 Reference value :  5.78119e-06
 Reference value :  5.80030e-06
 Reference value :  5.83851e-06
 Reference value :  5.91494e-06
 Reference value :  6.00000e-06
 Reference value :  6.00001e-06
 Reference value :  6.00003e-06
 Reference value :  6.00007e-06
 Reference value :  6.00010e-06
 Reference value :  6.00010e-06
 Reference value :  6.00011e-06
 Reference value :  6.00013e-06
 Reference value :  6.00016e-06
 Reference value :  6.00023e-06
 Reference value :  6.00036e-06
 Reference value :  6.00054e-06
 Reference value :  6.00089e-06
 Reference value :  6.00139e-06
 Reference value :  6.00190e-06
 Reference value :  6.00243e-06
 Reference value :  6.00310e-06
 Reference value :  6.00375e-06
 Reference value :  6.00453e-06
 Reference value :  6.00519e-06
 Reference value :  6.00590e-06
 Reference value :  6.00668e-06
 Reference value :  6.00744e-06
 Reference value :  6.00827e-06
 Reference value :  6.00942e-06
 Reference value :  6.01067e-06
 Reference value :  6.01277e-06
 Reference value :  6.01535e-06
 Reference value :  6.01727e-06
 Reference value :  6.01939e-06
 Reference value :  6.02101e-06
 Reference value :  6.02280e-06
 Reference value :  6.02456e-06
 Reference value :  6.02649e-06
 Reference value :  6.02863e-06
 Reference value :  6.03105e-06
 Reference value :  6.03466e-06
 Reference value :  6.03948e-06
 Reference value :  6.04699e-06
 Reference value :  6.05682e-06
 Reference value :  6.07301e-06
 Reference value :  6.09178e-06
 Reference value :  6.11825e-06
 Reference value :  6.17118e-06
 Reference value :  6.25010e-06
 Reference value :  6.25011e-06
 Reference value :  6.25013e-06
 Reference value :  6.25017e-06
 Reference value :  6.25020e-06
 Reference value :  6.25020e-06
 Reference value :  6.25020e-06
 Reference value :  6.25021e-06
 Reference value :  6.25021e-06
 Reference value :  6.25022e-06
 Reference value :  6.25025e-06
 Reference value :  6.25029e-06
 Reference value :  6.25039e-06
 Reference value :  6.25057e-06
 Reference value :  6.25090e-06
 Reference value :  6.25139e-06
 Reference value :  6.25202e-06
 Reference value :  6.25260e-06
 Reference value :  6.25328e-06
 Reference value :  6.25412e-06
 Reference value :  6.25473e-06
 Reference value :  6.25544e-06
 Reference value :  6.25637e-06
 Reference value :  6.25724e-06
 Reference value :  6.25836e-06
 Reference value :  6.26036e-06
 Reference value :  6.26232e-06
 Reference value :  6.26558e-06
 Reference value :  6.26957e-06
 Reference value :  6.27756e-06
 Reference value :  6.29354e-06
 Reference value :  6.32550e-06
 Reference value :  6.38941e-06
 Reference value :  6.50000e-06
 Reference value :  6.50001e-06
 Reference value :  6.50003e-06
 Reference value :  6.50007e-06
 Reference value :  6.50010e-06
 Reference value :  6.50010e-06
 Reference value :  6.50011e-06
 Reference value :  6.50013e-06
 Reference value :  6.50016e-06
 Reference value :  6.50023e-06
 Reference value :  6.50037e-06
 Reference value :  6.50054e-06
 Reference value :  6.50090e-06
 Reference value :  6.50139e-06
 Reference value :  6.50191e-06
 Reference value :  6.50245e-06
 Reference value :  6.50311e-06
 Reference value :  6.50378e-06
 Reference value :  6.50453e-06
 Reference value :  6.50538e-06
 Reference value :  6.50621e-06
 Reference value :  6.50734e-06
 Reference value :  6.50873e-06
 Reference value :  6.50992e-06
 Reference value :  6.51115e-06
 Reference value :  6.51228e-06
 Reference value :  6.51360e-06
 Reference value :  6.51491e-06
 Reference value :  6.51642e-06
 Reference value :  6.51943e-06
 Reference value :  6.52545e-06
 Reference value :  6.53617e-06
 Reference value :  6.55760e-06
 Reference value :  6.60047e-06
 Reference value :  6.68621e-06
 Reference value :  6.75010e-06
 Reference value :  6.75011e-06
 Reference value :  6.75013e-06
 Reference value :  6.75017e-06
 Reference value :  6.75020e-06
 Reference value :  6.75020e-06
 Reference value :  6.75020e-06
 Reference value :  6.75021e-06
 Reference value :  6.75021e-06
 Reference value :  6.75022e-06
 Reference value :  6.75025e-06
 Reference value :  6.75029e-06
 Reference value :  6.75039e-06
 Reference value :  6.75058e-06
 Reference value :  6.75091e-06
 Reference value :  6.75141e-06
 Reference value :  6.75204e-06
 Reference value :  6.75262e-06
 Reference value :  6.75330e-06
 Reference value :  6.75414e-06
 Reference value :  6.75475e-06
 Reference value :  6.75544e-06
 Reference value :  6.75613e-06
 Reference value :  6.75686e-06
 Reference value :  6.75781e-06
 Reference value :  6.75887e-06
 Reference value :  6.76098e-06
 Reference value :  6.76315e-06
 Reference value :  6.76695e-06
 Reference value :  6.77180e-06
 Reference value :  6.78149e-06
 Reference value :  6.80088e-06
 Reference value :  6.83966e-06
 Reference value :  6.91722e-06
 Reference value :  7.00000e-06
 Reference value :  7.00001e-06
 Reference value :  7.00003e-06
 Reference value :  7.00007e-06
 Reference value :  7.00010e-06
 Reference value :  7.00010e-06
 Reference value :  7.00011e-06
 Reference value :  7.00013e-06
 Reference value :  7.00016e-06
 Reference value :  7.00023e-06
 Reference value :  7.00036e-06
 Reference value :  7.00054e-06
 Reference value :  7.00089e-06
 Reference value :  7.00139e-06
 Reference value :  7.00190e-06
 Reference value :  7.00243e-06
 Reference value :  7.00310e-06
 Reference value :  7.00375e-06
 Reference value :  7.00453e-06
 Reference value :  7.00519e-06
 Reference value :  7.00590e-06
 Reference value :  7.00670e-06
 Reference value :  7.00746e-06
 Reference value :  7.00829e-06
 Reference value :  7.00952e-06
 Reference value :  7.01070e-06
 Reference value :  7.01288e-06
 Reference value :  7.01546e-06
 Reference value :  7.01740e-06
 Reference value :  7.01954e-06
 Reference value :  7.02109e-06
 Reference value :  7.02276e-06
 Reference value :  7.02452e-06
 Reference value :  7.02639e-06
 Reference value :  7.02844e-06
 Reference value :  7.03088e-06
 Reference value :  7.03447e-06
 Reference value :  7.03965e-06
 Reference value :  7.04458e-06
 Reference value :  7.05306e-06
 Reference value :  7.06559e-06
 Reference value :  7.08802e-06
 Reference value :  7.13261e-06
 Reference value :  7.20576e-06
 Reference value :  7.25010e-06
 Reference value :  7.25011e-06
 Reference value :  7.25013e-06
 Reference value :  7.25017e-06
 Reference value :  7.25020e-06
 Reference value :  7.25020e-06
 Reference value :  7.25020e-06
 Reference value :  7.25021e-06
 Reference value :  7.25021e-06
 Reference value :  7.25022e-06
 Reference value :  7.25025e-06
 Reference value :  7.25029e-06
 Reference value :  7.25039e-06
 Reference value :  7.25057e-06
 Reference value :  7.25091e-06
 Reference value :  7.25140e-06
 Reference value :  7.25203e-06
 Reference value :  7.25261e-06
 Reference value :  7.25329e-06
 Reference value :  7.25413e-06
 Reference value :  7.25474e-06
 Reference value :  7.25544e-06
 Reference value :  7.25632e-06
 Reference value :  7.25724e-06
 Reference value :  7.25830e-06
 Reference value :  7.26041e-06
 Reference value :  7.26232e-06
 Reference value :  7.26564e-06
 Reference value :  7.26956e-06
 Reference value :  7.27740e-06
 Reference value :  7.29309e-06
 Reference value :  7.32446e-06
 Reference value :  7.38719e-06
 Reference value :  7.50000e-06
 Reference value :  7.50001e-06
 Reference value :  7.50003e-06
 Reference value :  7.50007e-06
 Reference value :  7.50010e-06
 Reference value :  7.50010e-06
 Reference value :  7.50011e-06
 Reference value :  7.50013e-06
 Reference value :  7.50016e-06
 Reference value :  7.50023e-06
 Reference value :  7.50037e-06
 Reference value :  7.50054e-06
 Reference value :  7.50090e-06
 Reference value :  7.50142e-06
 Reference value :  7.50194e-06
 Reference value :  7.50250e-06
 Reference value :  7.50316e-06
 Reference value :  7.50386e-06
 Reference value :  7.50459e-06
 Reference value :  7.50542e-06
 Reference value :  7.50628e-06
 Reference value :  7.50746e-06
 Reference value :  7.50889e-06
 Reference value :  7.51031e-06
 Reference value :  7.51160e-06
 Reference value :  7.51279e-06
 Reference value :  7.51415e-06
 Reference value :  7.51553e-06
 Reference value :  7.51710e-06
 Reference value :  7.52026e-06
 Reference value :  7.52502e-06
 Reference value :  7.53455e-06
 Reference value :  7.55360e-06
 Reference value :  7.59171e-06
 Reference value :  7.66792e-06
 Reference value :  7.75010e-06
 Reference value :  7.75011e-06
 Reference value :  7.75013e-06
 Reference value :  7.75017e-06
 Reference value :  7.75020e-06
 Reference value :  7.75020e-06
 Reference value :  7.75020e-06
 Reference value :  7.75021e-06
 Reference value :  7.75021e-06
 Reference value :  7.75022e-06
 Reference value :  7.75025e-06
 Reference value :  7.75029e-06
 Reference value :  7.75039e-06
 Reference value :  7.75058e-06
 Reference value :  7.75092e-06
 Reference value :  7.75141e-06
 Reference value :  7.75198e-06
 Reference value :  7.75258e-06
 Reference value :  7.75322e-06
 Reference value :  7.75406e-06
 Reference value :  7.75466e-06
 Reference value :  7.75537e-06
 Reference value :  7.75602e-06
 Reference value :  7.75674e-06
 Reference value :  7.75764e-06
 Reference value :  7.75865e-06
 Reference value :  7.76066e-06
 Reference value :  7.76277e-06
 Reference value :  7.76636e-06
 Reference value :  7.77080e-06
 Reference value :  7.77967e-06
 Reference value :  7.79741e-06
 Reference value :  7.83290e-06
 Reference value :  7.90387e-06
 Reference value :  8.00000e-06
 Reference value :  8.00001e-06
 Reference value :  8.00003e-06
 Reference value :  8.00007e-06
 Reference value :  8.00010e-06
 Reference value :  8.00010e-06
 Reference value :  8.00011e-06
 Reference value :  8.00013e-06
 Reference value :  8.00016e-06
 Reference value :  8.00023e-06
 Reference value :  8.00036e-06
 Reference value :  8.00054e-06
 Reference value :  8.00090e-06
 Reference value :  8.00141e-06
 Reference value :  8.00193e-06
 Reference value :  8.00248e-06
 Reference value :  8.00314e-06
 Reference value :  8.00383e-06
 Reference value :  8.00463e-06
 Reference value :  8.00531e-06
 Reference value :  8.00603e-06
 Reference value :  8.00682e-06
 Reference value :  8.00759e-06
 Reference value :  8.00843e-06
 Reference value :  8.00958e-06
 Reference value :  8.01089e-06
 Reference value :  8.01303e-06
 Reference value :  8.01567e-06
 Reference value :  8.01766e-06
 Reference value :  8.01986e-06
 Reference value :  8.02201e-06
 Reference value :  8.02449e-06
 Reference value :  8.02834e-06
 Reference value :  8.03343e-06
 Reference value :  8.04218e-06
 Reference value :  8.05631e-06
 Reference value :  8.08023e-06
 Reference value :  8.12249e-06
 Reference value :  8.19488e-06
 Reference value :  8.25010e-06
 Reference value :  8.25011e-06
 Reference value :  8.25013e-06
 Reference value :  8.25017e-06
 Reference value :  8.25020e-06
 Reference value :  8.25020e-06
 Reference value :  8.25020e-06
 Reference value :  8.25021e-06
 Reference value :  8.25021e-06
 Reference value :  8.25022e-06
 Reference value :  8.25025e-06
 Reference value :  8.25029e-06
 Reference value :  8.25039e-06
 Reference value :  8.25058e-06
 Reference value :  8.25096e-06
 Reference value :  8.25143e-06
 Reference value :  8.25198e-06
 Reference value :  8.25258e-06
 Reference value :  8.25322e-06
 Reference value :  8.25405e-06
 Reference value :  8.25495e-06
 Reference value :  8.25612e-06
 Reference value :  8.25752e-06
 Reference value :  8.25885e-06
 Reference value :  8.26110e-06
 Reference value :  8.26350e-06
 Reference value :  8.26727e-06
 Reference value :  8.27288e-06
 Reference value :  8.28409e-06
 Reference value :  8.30652e-06
 Reference value :  8.35137e-06
 Reference value :  8.44107e-06
 Reference value :  8.50000e-06
 Reference value :  8.50001e-06
 Reference value :  8.50003e-06
 Reference value :  8.50007e-06
 Reference value :  8.50010e-06
 Reference value :  8.50010e-06
 Reference value :  8.50011e-06
 Reference value :  8.50013e-06
 Reference value :  8.50016e-06
 Reference value :  8.50023e-06
 Reference value :  8.50036e-06
 Reference value :  8.50062e-06
 Reference value :  8.50102e-06
 Reference value :  8.50173e-06
 Reference value :  8.50238e-06
 Reference value :  8.50294e-06
 Reference value :  8.50362e-06
 Reference value :  8.50426e-06
 Reference value :  8.50502e-06
 Reference value :  8.50586e-06
 Reference value :  8.50680e-06
 Reference value :  8.50827e-06
 Reference value :  8.50963e-06
 Reference value :  8.51111e-06
 Reference value :  8.51253e-06
 Reference value :  8.51419e-06
 Reference value :  8.51634e-06
 Reference value :  8.51873e-06
 Reference value :  8.52351e-06
 Reference value :  8.52873e-06
 Reference value :  8.53247e-06
 Reference value :  8.53557e-06
 Reference value :  8.53850e-06
 Reference value :  8.54134e-06
 Reference value :  8.54348e-06
 Reference value :  8.54532e-06
 Reference value :  8.54728e-06
 Reference value :  8.54920e-06
 Reference value :  8.55087e-06
 Reference value :  8.55230e-06
 Reference value :  8.55399e-06
 Reference value :  8.55659e-06
 Reference value :  8.55916e-06
 Reference value :  8.56148e-06
 Reference value :  8.56402e-06
 Reference value :  8.56723e-06
 Reference value :  8.57056e-06
 Reference value :  8.57398e-06
 Reference value :  8.57626e-06
 Reference value :  8.57948e-06
 Reference value :  8.58545e-06
 Reference value :  8.59176e-06
 Reference value :  8.59859e-06
 Reference value :  8.60580e-06
 Reference value :  8.62023e-06
 Reference value :  8.64909e-06
 Reference value :  8.69929e-06
 Reference value :  8.75010e-06
 Reference value :  8.75011e-06
 Reference value :  8.75013e-06
 Reference value :  8.75017e-06
 Reference value :  8.75020e-06
 Reference value :  8.75020e-06
 Reference value :  8.75020e-06
 Reference value :  8.75021e-06
 Reference value :  8.75021e-06
 Reference value :  8.75022e-06
 Reference value :  8.75025e-06
 Reference value :  8.75029e-06
 Reference value :  8.75039e-06
 Reference value :  8.75058e-06
 Reference value :  8.75096e-06
 Reference value :  8.75143e-06
 Reference value :  8.75199e-06
 Reference value :  8.75258e-06
 Reference value :  8.75323e-06
 Reference value :  8.75405e-06
 Reference value :  8.75466e-06
 Reference value :  8.75536e-06
 Reference value :  8.75620e-06
 Reference value :  8.75706e-06
 Reference value :  8.75813e-06
 Reference value :  8.76004e-06
 Reference value :  8.76191e-06
 Reference value :  8.76491e-06
 Reference value :  8.76871e-06
 Reference value :  8.77631e-06
 Reference value :  8.79152e-06
 Reference value :  8.82004e-06
 Reference value :  8.87709e-06
 Reference value :  8.99008e-06
 Reference value :  9.00000e-06
 Reference value :  9.00001e-06
 Reference value :  9.00003e-06
 Reference value :  9.00007e-06
 Reference value :  9.00010e-06
 Reference value :  9.00010e-06
 Reference value :  9.00011e-06
 Reference value :  9.00013e-06
 Reference value :  9.00016e-06
 Reference value :  9.00023e-06
 Reference value :  9.00036e-06
 Reference value :  9.00055e-06
 Reference value :  9.00092e-06
 Reference value :  9.00145e-06
 Reference value :  9.00199e-06
 Reference value :  9.00254e-06
 Reference value :  9.00316e-06
 Reference value :  9.00393e-06
 Reference value :  9.00468e-06
 Reference value :  9.00549e-06
 Reference value :  9.00651e-06
 Reference value :  9.00754e-06
 Reference value :  9.00928e-06
 Reference value :  9.01141e-06
 Reference value :  9.01314e-06
 Reference value :  9.01497e-06
 Reference value :  9.01660e-06
 Reference value :  9.01840e-06
 Reference value :  9.02116e-06
 Reference value :  9.02372e-06
 Reference value :  9.02859e-06
 Reference value :  9.03497e-06
 Reference value :  9.04733e-06
 Reference value :  9.06701e-06
 Reference value :  9.10100e-06
 Reference value :  9.16255e-06
 Reference value :  9.25010e-06
 Reference value :  9.25011e-06
 Reference value :  9.25013e-06
 Reference value :  9.25017e-06
 Reference value :  9.25020e-06
 Reference value :  9.25020e-06
 Reference value :  9.25020e-06
 Reference value :  9.25021e-06
 Reference value :  9.25021e-06
 Reference value :  9.25022e-06
 Reference value :  9.25025e-06
 Reference value :  9.25029e-06
 Reference value :  9.25039e-06
 Reference value :  9.25057e-06
 Reference value :  9.25094e-06
 Reference value :  9.25142e-06
 Reference value :  9.25198e-06
 Reference value :  9.25259e-06
 Reference value :  9.25324e-06
 Reference value :  9.25411e-06
 Reference value :  9.25473e-06
 Reference value :  9.25545e-06
 Reference value :  9.25613e-06
 Reference value :  9.25686e-06
 Reference value :  9.25778e-06
 Reference value :  9.25869e-06
 Reference value :  9.25963e-06
 Reference value :  9.26096e-06
 Reference value :  9.26233e-06
 Reference value :  9.26454e-06
 Reference value :  9.26695e-06
 Reference value :  9.27076e-06
 Reference value :  9.27659e-06
 Reference value :  9.28479e-06
 Reference value :  9.29793e-06
 Reference value :  9.31765e-06
 Reference value :  9.35423e-06
 Reference value :  9.41525e-06
 Reference value :  9.50000e-06
 Reference value :  9.50001e-06
 Reference value :  9.50003e-06
 Reference value :  9.50007e-06
 Reference value :  9.50010e-06
 Reference value :  9.50010e-06
 Reference value :  9.50011e-06
 Reference value :  9.50013e-06
 Reference value :  9.50016e-06
 Reference value :  9.50023e-06
 Reference value :  9.50036e-06
 Reference value :  9.50055e-06
 Reference value :  9.50092e-06
 Reference value :  9.50145e-06
 Reference value :  9.50198e-06
 Reference value :  9.50255e-06
 Reference value :  9.50322e-06
 Reference value :  9.50397e-06
 Reference value :  9.50479e-06
 Reference value :  9.50548e-06
 Reference value :  9.50619e-06
 Reference value :  9.50688e-06
 Reference value :  9.50766e-06
 Reference value :  9.50843e-06
 Reference value :  9.50955e-06
 Reference value :  9.51082e-06
 Reference value :  9.51259e-06
 Reference value :  9.51410e-06
 Reference value :  9.51570e-06
 Reference value :  9.51737e-06
 Reference value :  9.51891e-06
 Reference value :  9.52014e-06
 Reference value :  9.52132e-06
 Reference value :  9.52245e-06
 Reference value :  9.52365e-06
 Reference value :  9.52505e-06
 Reference value :  9.52676e-06
 Reference value :  9.52895e-06
 Reference value :  9.53206e-06
 Reference value :  9.53818e-06
 Reference value :  9.54686e-06
 Reference value :  9.56294e-06
 Reference value :  9.58942e-06
 Reference value :  9.63405e-06
 Reference value :  9.70333e-06
 Reference value :  9.75010e-06
 Reference value :  9.75011e-06
 Reference value :  9.75013e-06
 Reference value :  9.75017e-06
 Reference value :  9.75020e-06
 Reference value :  9.75020e-06
 Reference value :  9.75020e-06
 Reference value :  9.75021e-06
 Reference value :  9.75021e-06
 Reference value :  9.75022e-06
 Reference value :  9.75025e-06
 Reference value :  9.75029e-06
 Reference value :  9.75039e-06
 Reference value :  9.75058e-06
 Reference value :  9.75091e-06
 Reference value :  9.75141e-06
 Reference value :  9.75205e-06
 Reference value :  9.75262e-06
 Reference value :  9.75330e-06
 Reference value :  9.75413e-06
 Reference value :  9.75472e-06
 Reference value :  9.75541e-06
 Reference value :  9.75629e-06
 Reference value :  9.75719e-06
 Reference value :  9.75825e-06
 Reference value :  9.76013e-06
 Reference value :  9.76206e-06
 Reference value :  9.76517e-06
 Reference value :  9.76905e-06
 Reference value :  9.77681e-06
 Reference value :  9.79233e-06
 Reference value :  9.82338e-06
 Reference value :  9.88546e-06
 Reference value :  9.97712e-06
 Reference value :  1.00000e-05
 Reference value :  1.00000e-05
 Reference value :  1.00000e-05
 Reference value :  1.00001e-05
 Reference value :  1.00001e-05
 Reference value :  1.00001e-05
 Reference value :  1.00001e-05
 Reference value :  1.00001e-05
 Reference value :  1.00002e-05
 Reference value :  1.00002e-05
 Reference value :  1.00004e-05
 Reference value :  1.00005e-05
 Reference value :  1.00009e-05
 Reference value :  1.00014e-05
 Reference value :  1.00019e-05
 Reference value :  1.00024e-05
 Reference value :  1.00030e-05
 Reference value :  1.00037e-05
 Reference value :  1.00045e-05
 Reference value :  1.00053e-05
 Reference value :  1.00063e-05
 Reference value :  1.00076e-05
 Reference value :  1.00090e-05
 Reference value :  1.00104e-05
 Reference value :  1.00118e-05
 Reference value :  1.00131e-05
 Reference value :  1.00145e-05
 Reference value :  1.00159e-05
 Reference value :  1.00176e-05
 Reference value :  1.00208e-05
 Reference value :  1.00266e-05
 Reference value :  1.00371e-05
 Reference value :  1.00582e-05
 Reference value :  1.01005e-05
 Reference value :  1.01850e-05
 Reference value :  1.02501e-05
 Reference value :  1.02501e-05
 Reference value :  1.02501e-05
 Reference value :  1.02502e-05
 Reference value :  1.02502e-05
 Reference value :  1.02502e-05
 Reference value :  1.02502e-05
 Reference value :  1.02502e-05
 Reference value :  1.02502e-05
 Reference value :  1.02502e-05
 Reference value :  1.02502e-05
 Reference value :  1.02503e-05
 Reference value :  1.02504e-05
 Reference value :  1.02506e-05
 Reference value :  1.02509e-05
 Reference value :  1.02514e-05
 Reference value :  1.02520e-05
 Reference value :  1.02526e-05
 Reference value :  1.02532e-05
 Reference value :  1.02541e-05
 Reference value :  1.02547e-05
 Reference value :  1.02554e-05
 Reference value :  1.02561e-05
 Reference value :  1.02568e-05
 Reference value :  1.02577e-05
 Reference value :  1.02587e-05
 Reference value :  1.02597e-05
 Reference value :  1.02612e-05
 Reference value :  1.02629e-05
 Reference value :  1.02651e-05
 Reference value :  1.02680e-05
 Reference value :  1.02722e-05
 Reference value :  1.02807e-05
 Reference value :  1.02967e-05
 Reference value :  1.03288e-05
 Reference value :  1.03930e-05
 Reference value :  1.05000e-05
 Reference value :  1.05000e-05
 Reference value :  1.05000e-05
 Reference value :  1.05001e-05
 Reference value :  1.05001e-05
 Reference value :  1.05001e-05
 Reference value :  1.05001e-05
 Reference value :  1.05001e-05
 Reference value :  1.05002e-05
 Reference value :  1.05002e-05
 Reference value :  1.05004e-05
 Reference value :  1.05005e-05
 Reference value :  1.05009e-05
 Reference value :  1.05014e-05
 Reference value :  1.05019e-05
 Reference value :  1.05024e-05
 Reference value :  1.05031e-05
 Reference value :  1.05038e-05
 Reference value :  1.05045e-05
 Reference value :  1.05052e-05
 Reference value :  1.05058e-05
 Reference value :  1.05065e-05
 Reference value :  1.05072e-05
 Reference value :  1.05080e-05
 Reference value :  1.05089e-05
 Reference value :  1.05099e-05
 Reference value :  1.05115e-05
 Reference value :  1.05138e-05
 Reference value :  1.05153e-05
 Reference value :  1.05171e-05
 Reference value :  1.05187e-05
 Reference value :  1.05199e-05
 Reference value :  1.05211e-05
 Reference value :  1.05222e-05
 Reference value :  1.05235e-05
 Reference value :  1.05250e-05
 Reference value :  1.05264e-05
 Reference value :  1.05290e-05
 Reference value :  1.05320e-05
 Reference value :  1.05380e-05
 Reference value :  1.05480e-05
 Reference value :  1.05608e-05
 Reference value :  1.05850e-05
 Reference value :  1.06245e-05
 Reference value :  1.06785e-05
 Reference value :  1.07501e-05
 Reference value :  1.07501e-05
 Reference value :  1.07501e-05
 Reference value :  1.07502e-05
 Reference value :  1.07502e-05
 Reference value :  1.07502e-05
 Reference value :  1.07502e-05
 Reference value :  1.07502e-05
 Reference value :  1.07502e-05
 Reference value :  1.07502e-05
 Reference value :  1.07502e-05
 Reference value :  1.07503e-05
 Reference value :  1.07504e-05
 Reference value :  1.07506e-05
 Reference value :  1.07509e-05
 Reference value :  1.07514e-05
 Reference value :  1.07520e-05
 Reference value :  1.07526e-05
 Reference value :  1.07532e-05
 Reference value :  1.07541e-05
 Reference value :  1.07547e-05
 Reference value :  1.07554e-05
 Reference value :  1.07562e-05
 Reference value :  1.07570e-05
 Reference value :  1.07581e-05
 Reference value :  1.07598e-05
 Reference value :  1.07617e-05
 Reference value :  1.07645e-05
 Reference value :  1.07684e-05
 Reference value :  1.07761e-05
 Reference value :  1.07916e-05
 Reference value :  1.08218e-05
 Reference value :  1.08750e-05
 Reference value :  1.09317e-05
 Reference value :  1.09955e-05
 Reference value :  1.10000e-05
 Reference value :  1.10000e-05
 Reference value :  1.10000e-05
 Reference value :  1.10001e-05
 Reference value :  1.10001e-05
 Reference value :  1.10001e-05
 Reference value :  1.10001e-05
 Reference value :  1.10001e-05
 Reference value :  1.10002e-05
 Reference value :  1.10002e-05
 Reference value :  1.10004e-05
 Reference value :  1.10005e-05
 Reference value :  1.10009e-05
 Reference value :  1.10014e-05
 Reference value :  1.10019e-05
 Reference value :  1.10024e-05
 Reference value :  1.10030e-05
 Reference value :  1.10037e-05
 Reference value :  1.10046e-05
 Reference value :  1.10054e-05
 Reference value :  1.10063e-05
 Reference value :  1.10076e-05
 Reference value :  1.10091e-05
 Reference value :  1.10104e-05
 Reference value :  1.10119e-05
 Reference value :  1.10132e-05
 Reference value :  1.10146e-05
 Reference value :  1.10160e-05
 Reference value :  1.10176e-05
 Reference value :  1.10209e-05
 Reference value :  1.10258e-05
 Reference value :  1.10358e-05
 Reference value :  1.10556e-05
 Reference value :  1.10952e-05
 Reference value :  1.11745e-05
 Reference value :  1.12501e-05
 Reference value :  1.12501e-05
 Reference value :  1.12501e-05
 Reference value :  1.12502e-05
 Reference value :  1.12502e-05
 Reference value :  1.12502e-05
 Reference value :  1.12502e-05
 Reference value :  1.12502e-05
 Reference value :  1.12502e-05
 Reference value :  1.12502e-05
 Reference value :  1.12502e-05
 Reference value :  1.12503e-05
 Reference value :  1.12504e-05
 Reference value :  1.12506e-05
 Reference value :  1.12509e-05
 Reference value :  1.12514e-05
 Reference value :  1.12520e-05
 Reference value :  1.12526e-05
 Reference value :  1.12532e-05
 Reference value :  1.12541e-05
 Reference value :  1.12547e-05
 Reference value :  1.12554e-05
 Reference value :  1.12561e-05
 Reference value :  1.12568e-05
 Reference value :  1.12577e-05
 Reference value :  1.12587e-05
 Reference value :  1.12597e-05
 Reference value :  1.12612e-05
 Reference value :  1.12629e-05
 Reference value :  1.12651e-05
 Reference value :  1.12680e-05
 Reference value :  1.12722e-05
 Reference value :  1.12806e-05
 Reference value :  1.12968e-05
 Reference value :  1.13292e-05
 Reference value :  1.13939e-05
 Reference value :  1.15000e-05
 Reference value :  1.15000e-05
 Reference value :  1.15000e-05
 Reference value :  1.15001e-05
 Reference value :  1.15001e-05
 Reference value :  1.15001e-05
 Reference value :  1.15001e-05
 Reference value :  1.15001e-05
 Reference value :  1.15002e-05
 Reference value :  1.15002e-05
 Reference value :  1.15004e-05
 Reference value :  1.15005e-05
 Reference value :  1.15009e-05
 Reference value :  1.15014e-05
 Reference value :  1.15019e-05
 Reference value :  1.15024e-05
 Reference value :  1.15031e-05
 Reference value :  1.15037e-05
 Reference value :  1.15045e-05
 Reference value :  1.15051e-05
 Reference value :  1.15058e-05
 Reference value :  1.15065e-05
 Reference value :  1.15072e-05
 Reference value :  1.15080e-05
 Reference value :  1.15089e-05
 Reference value :  1.15099e-05
 Reference value :  1.15116e-05
 Reference value :  1.15132e-05
 Reference value :  1.15146e-05
 Reference value :  1.15161e-05
 Reference value :  1.15177e-05
 Reference value :  1.15189e-05
 Reference value :  1.15201e-05
 Reference value :  1.15215e-05
 Reference value :  1.15229e-05
 Reference value :  1.15242e-05
 Reference value :  1.15259e-05
 Reference value :  1.15281e-05
 Reference value :  1.15304e-05
 Reference value :  1.15344e-05
 Reference value :  1.15401e-05
 Reference value :  1.15493e-05
 Reference value :  1.15646e-05
 Reference value :  1.15885e-05
 Reference value :  1.16339e-05
 Reference value :  1.16828e-05
 Reference value :  1.17150e-05
 Reference value :  1.17501e-05
 Reference value :  1.17501e-05
 Reference value :  1.17501e-05
 Reference value :  1.17502e-05
 Reference value :  1.17502e-05
 Reference value :  1.17502e-05
 Reference value :  1.17502e-05
 Reference value :  1.17502e-05
 Reference value :  1.17502e-05
 Reference value :  1.17502e-05
 Reference value :  1.17502e-05
 Reference value :  1.17503e-05
 Reference value :  1.17504e-05
 Reference value :  1.17506e-05
 Reference value :  1.17509e-05
 Reference value :  1.17514e-05
 Reference value :  1.17520e-05
 Reference value :  1.17526e-05
 Reference value :  1.17532e-05
 Reference value :  1.17541e-05
 Reference value :  1.17547e-05
 Reference value :  1.17554e-05
 Reference value :  1.17562e-05
 Reference value :  1.17570e-05
 Reference value :  1.17581e-05
 Reference value :  1.17598e-05
 Reference value :  1.17617e-05
 Reference value :  1.17645e-05
 Reference value :  1.17684e-05
 Reference value :  1.17761e-05
 Reference value :  1.17916e-05
 Reference value :  1.18218e-05
 Reference value :  1.18822e-05
 Reference value :  1.20000e-05
 Reference value :  1.20000e-05
 Reference value :  1.20000e-05
 Reference value :  1.20001e-05
 Reference value :  1.20001e-05
 Reference value :  1.20001e-05
 Reference value :  1.20001e-05
 Reference value :  1.20001e-05
 Reference value :  1.20002e-05
 Reference value :  1.20002e-05
 Reference value :  1.20004e-05
 Reference value :  1.20005e-05
 Reference value :  1.20009e-05
 Reference value :  1.20014e-05
 Reference value :  1.20019e-05
 Reference value :  1.20024e-05
 Reference value :  1.20030e-05
 Reference value :  1.20037e-05
 Reference value :  1.20046e-05
 Reference value :  1.20053e-05
 Reference value :  1.20063e-05
 Reference value :  1.20074e-05
 Reference value :  1.20087e-05
 Reference value :  1.20099e-05
 Reference value :  1.20111e-05
 Reference value :  1.20125e-05
 Reference value :  1.20141e-05
 Reference value :  1.20157e-05
 Reference value :  1.20176e-05
 Reference value :  1.20210e-05
 Reference value :  1.20260e-05
 Reference value :  1.20356e-05
 Reference value :  1.20538e-05
 Reference value :  1.20873e-05
 Reference value :  1.21544e-05
 Reference value :  1.22501e-05
 Reference value :  1.22501e-05
 Reference value :  1.22501e-05
 Reference value :  1.22502e-05
 Reference value :  1.22502e-05
 Reference value :  1.22502e-05
 Reference value :  1.22502e-05
 Reference value :  1.22502e-05
 Reference value :  1.22502e-05
 Reference value :  1.22502e-05
 Reference value :  1.22502e-05
 Reference value :  1.22503e-05
 Reference value :  1.22504e-05
 Reference value :  1.22506e-05
 Reference value :  1.22509e-05
 Reference value :  1.22514e-05
 Reference value :  1.22520e-05
 Reference value :  1.22526e-05
 Reference value :  1.22532e-05
 Reference value :  1.22541e-05
 Reference value :  1.22547e-05
 Reference value :  1.22554e-05
 Reference value :  1.22561e-05
 Reference value :  1.22568e-05
 Reference value :  1.22577e-05
 Reference value :  1.22587e-05
 Reference value :  1.22597e-05
 Reference value :  1.22612e-05
 Reference value :  1.22629e-05
 Reference value :  1.22651e-05
 Reference value :  1.22680e-05
 Reference value :  1.22722e-05
 Reference value :  1.22807e-05
 Reference value :  1.22972e-05
 Reference value :  1.23303e-05
 Reference value :  1.23964e-05
 Reference value :  1.25000e-05
 Reference value :  1.25000e-05
 Reference value :  1.25000e-05
 Reference value :  1.25001e-05
 Reference value :  1.25001e-05
 Reference value :  1.25001e-05
 Reference value :  1.25001e-05
 Reference value :  1.25001e-05
 Reference value :  1.25002e-05
 Reference value :  1.25002e-05
 Reference value :  1.25004e-05
 Reference value :  1.25005e-05
 Reference value :  1.25009e-05
 Reference value :  1.25014e-05
 Reference value :  1.25019e-05
 Reference value :  1.25024e-05
 Reference value :  1.25031e-05
 Reference value :  1.25037e-05
 Reference value :  1.25045e-05
 Reference value :  1.25051e-05
 Reference value :  1.25058e-05
 Reference value :  1.25065e-05
 Reference value :  1.25072e-05
 Reference value :  1.25079e-05
 Reference value :  1.25089e-05
 Reference value :  1.25099e-05
 Reference value :  1.25113e-05
 Reference value :  1.25125e-05
 Reference value :  1.25138e-05
 Reference value :  1.25151e-05
 Reference value :  1.25166e-05
 Reference value :  1.25180e-05
 Reference value :  1.25190e-05
 Reference value :  1.25200e-05
 Reference value :  1.25213e-05
 Reference value :  1.25224e-05
 Reference value :  1.25236e-05
 Reference value :  1.25250e-05
 Reference value :  1.25270e-05
 Reference value :  1.25291e-05
 Reference value :  1.25326e-05
 Reference value :  1.25384e-05
 Reference value :  1.25468e-05
 Reference value :  1.25619e-05
 Reference value :  1.25854e-05
 Reference value :  1.26081e-05
 Reference value :  1.26255e-05
 Reference value :  1.26381e-05
 Reference value :  1.26511e-05
 Reference value :  1.26661e-05
 Reference value :  1.26768e-05
 Reference value :  1.26891e-05
 Reference value :  1.27076e-05
 Reference value :  1.27199e-05
 Reference value :  1.27341e-05
 Reference value :  1.27501e-05
 Reference value :  1.27501e-05
 Reference value :  1.27501e-05
 Reference value :  1.27502e-05
 Reference value :  1.27502e-05
 Reference value :  1.27502e-05
 Reference value :  1.27502e-05
 Reference value :  1.27502e-05
 Reference value :  1.27502e-05
 Reference value :  1.27502e-05
 Reference value :  1.27502e-05
 Reference value :  1.27503e-05
 Reference value :  1.27504e-05
 Reference value :  1.27506e-05
 Reference value :  1.27509e-05
 Reference value :  1.27514e-05
 Reference value :  1.27520e-05
 Reference value :  1.27526e-05
 Reference value :  1.27533e-05
 Reference value :  1.27541e-05
 Reference value :  1.27547e-05
 Reference value :  1.27554e-05
 Reference value :  1.27563e-05
 Reference value :  1.27572e-05
 Reference value :  1.27582e-05
 Reference value :  1.27602e-05
 Reference value :  1.27621e-05
 Reference value :  1.27653e-05
 Reference value :  1.27691e-05
 Reference value :  1.27768e-05
 Reference value :  1.27922e-05
 Reference value :  1.28160e-05
 Reference value :  1.28424e-05
 Reference value :  1.28683e-05
 Reference value :  1.28968e-05
 Reference value :  1.29384e-05
 Reference value :  1.30000e-05
 Reference value :  1.30000e-05
 Reference value :  1.30000e-05
 Reference value :  1.30001e-05
 Reference value :  1.30001e-05
 Reference value :  1.30001e-05
 Reference value :  1.30001e-05
 Reference value :  1.30001e-05
 Reference value :  1.30002e-05
 Reference value :  1.30002e-05
 Reference value :  1.30004e-05
 Reference value :  1.30005e-05
 Reference value :  1.30009e-05
 Reference value :  1.30014e-05
 Reference value :  1.30019e-05
 Reference value :  1.30024e-05
 Reference value :  1.30030e-05
 Reference value :  1.30037e-05
 Reference value :  1.30044e-05
 Reference value :  1.30052e-05
 Reference value :  1.30061e-05
 Reference value :  1.30073e-05
 Reference value :  1.30087e-05
 Reference value :  1.30099e-05
 Reference value :  1.30111e-05
 Reference value :  1.30122e-05
 Reference value :  1.30135e-05
 Reference value :  1.30149e-05
 Reference value :  1.30164e-05
 Reference value :  1.30194e-05
 Reference value :  1.30254e-05
 Reference value :  1.30359e-05
 Reference value :  1.30568e-05
 Reference value :  1.30987e-05
 Reference value :  1.31825e-05
 Reference value :  1.32501e-05
 Reference value :  1.32501e-05
 Reference value :  1.32501e-05
 Reference value :  1.32502e-05
 Reference value :  1.32502e-05
 Reference value :  1.32502e-05
 Reference value :  1.32502e-05
 Reference value :  1.32502e-05
 Reference value :  1.32502e-05
 Reference value :  1.32502e-05
 Reference value :  1.32502e-05
 Reference value :  1.32503e-05
 Reference value :  1.32504e-05
 Reference value :  1.32506e-05
 Reference value :  1.32509e-05
 Reference value :  1.32514e-05
 Reference value :  1.32520e-05
 Reference value :  1.32526e-05
 Reference value :  1.32533e-05
 Reference value :  1.32541e-05
 Reference value :  1.32548e-05
 Reference value :  1.32555e-05
 Reference value :  1.32561e-05
 Reference value :  1.32569e-05
 Reference value :  1.32578e-05
 Reference value :  1.32589e-05
 Reference value :  1.32601e-05
 Reference value :  1.32615e-05
 Reference value :  1.32636e-05
 Reference value :  1.32657e-05
 Reference value :  1.32693e-05
 Reference value :  1.32739e-05
 Reference value :  1.32830e-05
 Reference value :  1.33012e-05
 Reference value :  1.33376e-05
 Reference value :  1.34104e-05
 Reference value :  1.35000e-05
 Reference value :  1.35000e-05
 Reference value :  1.35000e-05
 Reference value :  1.35001e-05
 Reference value :  1.35001e-05
 Reference value :  1.35001e-05
 Reference value :  1.35001e-05
 Reference value :  1.35001e-05
 Reference value :  1.35002e-05
 Reference value :  1.35002e-05
 Reference value :  1.35004e-05
 Reference value :  1.35005e-05
 Reference value :  1.35009e-05
 Reference value :  1.35014e-05
 Reference value :  1.35019e-05
 Reference value :  1.35024e-05
 Reference value :  1.35031e-05
 Reference value :  1.35037e-05
 Reference value :  1.35045e-05
 Reference value :  1.35051e-05
 Reference value :  1.35058e-05
 Reference value :  1.35065e-05
 Reference value :  1.35072e-05
 Reference value :  1.35079e-05
 Reference value :  1.35090e-05
 Reference value :  1.35099e-05
 Reference value :  1.35118e-05
 Reference value :  1.35129e-05
 Reference value :  1.35143e-05
 Reference value :  1.35157e-05
 Reference value :  1.35172e-05
 Reference value :  1.35187e-05
 Reference value :  1.35200e-05
 Reference value :  1.35215e-05
 Reference value :  1.35229e-05
 Reference value :  1.35242e-05
 Reference value :  1.35259e-05
 Reference value :  1.35280e-05
 Reference value :  1.35303e-05
 Reference value :  1.35341e-05
 Reference value :  1.35397e-05
 Reference value :  1.35447e-05
 Reference value :  1.35482e-05
 Reference value :  1.35516e-05
 Reference value :  1.35544e-05
 Reference value :  1.35580e-05
 Reference value :  1.35632e-05
 Reference value :  1.35691e-05
 Reference value :  1.35782e-05
 Reference value :  1.35908e-05
 Reference value :  1.36068e-05
 Reference value :  1.36292e-05
 Reference value :  1.36650e-05
 Reference value :  1.37226e-05
 Reference value :  1.37501e-05
 Reference value :  1.37501e-05
 Reference value :  1.37501e-05
 Reference value :  1.37502e-05
 Reference value :  1.37502e-05
 Reference value :  1.37502e-05
 Reference value :  1.37502e-05
 Reference value :  1.37502e-05
 Reference value :  1.37502e-05
 Reference value :  1.37502e-05
 Reference value :  1.37502e-05
 Reference value :  1.37503e-05
 Reference value :  1.37504e-05
 Reference value :  1.37506e-05
 Reference value :  1.37509e-05
 Reference value :  1.37514e-05
 Reference value :  1.37520e-05
 Reference value :  1.37526e-05
 Reference value :  1.37533e-05
 Reference value :  1.37541e-05
 Reference value :  1.37547e-05
 Reference value :  1.37555e-05
 Reference value :  1.37564e-05
 Reference value :  1.37572e-05
 Reference value :  1.37584e-05
 Reference value :  1.37604e-05
 Reference value :  1.37624e-05
 Reference value :  1.37657e-05
 Reference value :  1.37697e-05
 Reference value :  1.37776e-05
 Reference value :  1.37935e-05
 Reference value :  1.38254e-05
 Reference value :  1.38890e-05
 Reference value :  1.40000e-05
 Reference value :  1.40000e-05
 Reference value :  1.40000e-05
 Reference value :  1.40001e-05
 Reference value :  1.40001e-05
 Reference value :  1.40001e-05
 Reference value :  1.40001e-05
 Reference value :  1.40001e-05
 Reference value :  1.40002e-05
 Reference value :  1.40002e-05
 Reference value :  1.40004e-05
 Reference value :  1.40005e-05
 Reference value :  1.40009e-05
 Reference value :  1.40014e-05
 Reference value :  1.40019e-05
 Reference value :  1.40025e-05
 Reference value :  1.40031e-05
 Reference value :  1.40038e-05
 Reference value :  1.40045e-05
 Reference value :  1.40054e-05
 Reference value :  1.40062e-05
 Reference value :  1.40075e-05
 Reference value :  1.40088e-05
 Reference value :  1.40101e-05
 Reference value :  1.40115e-05
 Reference value :  1.40128e-05
 Reference value :  1.40142e-05
 Reference value :  1.40158e-05
 Reference value :  1.40175e-05
 Reference value :  1.40206e-05
 Reference value :  1.40251e-05
 Reference value :  1.40336e-05
 Reference value :  1.40495e-05
 Reference value :  1.40791e-05
 Reference value :  1.41378e-05
 Reference value :  1.42501e-05
 Reference value :  1.42501e-05
 Reference value :  1.42501e-05
 Reference value :  1.42502e-05
 Reference value :  1.42502e-05
 Reference value :  1.42502e-05
 Reference value :  1.42502e-05
 Reference value :  1.42502e-05
 Reference value :  1.42502e-05
 Reference value :  1.42502e-05
 Reference value :  1.42502e-05
 Reference value :  1.42503e-05
 Reference value :  1.42504e-05
 Reference value :  1.42506e-05
 Reference value :  1.42509e-05
 Reference value :  1.42514e-05
 Reference value :  1.42520e-05
 Reference value :  1.42526e-05
 Reference value :  1.42533e-05
 Reference value :  1.42541e-05
 Reference value :  1.42547e-05
 Reference value :  1.42554e-05
 Reference value :  1.42561e-05
 Reference value :  1.42568e-05
 Reference value :  1.42578e-05
 Reference value :  1.42588e-05
 Reference value :  1.42609e-05
 Reference value :  1.42631e-05
 Reference value :  1.42668e-05
 Reference value :  1.42716e-05
 Reference value :  1.42812e-05
 Reference value :  1.43002e-05
 Reference value :  1.43384e-05
 Reference value :  1.44148e-05
 Reference value :  1.45000e-05
 Reference value :  1.45000e-05
 Reference value :  1.45000e-05
 Reference value :  1.45001e-05
 Reference value :  1.45001e-05
 Reference value :  1.45001e-05
 Reference value :  1.45001e-05
 Reference value :  1.45001e-05
 Reference value :  1.45002e-05
 Reference value :  1.45002e-05
 Reference value :  1.45004e-05
 Reference value :  1.45005e-05
 Reference value :  1.45009e-05
 Reference value :  1.45014e-05
 Reference value :  1.45019e-05
 Reference value :  1.45024e-05
 Reference value :  1.45031e-05
 Reference value :  1.45038e-05
 Reference value :  1.45045e-05
 Reference value :  1.45052e-05
 Reference value :  1.45059e-05
 Reference value :  1.45067e-05
 Reference value :  1.45074e-05
 Reference value :  1.45083e-05
 Reference value :  1.45094e-05
 Reference value :  1.45107e-05
 Reference value :  1.45128e-05
 Reference value :  1.45153e-05
 Reference value :  1.45173e-05
 Reference value :  1.45194e-05
 Reference value :  1.45210e-05
 Reference value :  1.45228e-05
 Reference value :  1.45245e-05
 Reference value :  1.45265e-05
 Reference value :  1.45286e-05
 Reference value :  1.45310e-05
 Reference value :  1.45346e-05
 Reference value :  1.45395e-05
 Reference value :  1.45471e-05
 Reference value :  1.45569e-05
 Reference value :  1.45732e-05
 Reference value :  1.45918e-05
 Reference value :  1.46185e-05
 Reference value :  1.46719e-05
 Reference value :  1.47501e-05
 Reference value :  1.47501e-05
 Reference value :  1.47501e-05
 Reference value :  1.47502e-05
 Reference value :  1.47502e-05
 Reference value :  1.47502e-05
 Reference value :  1.47502e-05
 Reference value :  1.47502e-05
 Reference value :  1.47502e-05
 Reference value :  1.47502e-05
 Reference value :  1.47502e-05
 Reference value :  1.47503e-05
 Reference value :  1.47504e-05
 Reference value :  1.47506e-05
 Reference value :  1.47509e-05
 Reference value :  1.47514e-05
 Reference value :  1.47520e-05
 Reference value :  1.47526e-05
 Reference value :  1.47533e-05
 Reference value :  1.47541e-05
 Reference value :  1.47547e-05
 Reference value :  1.47554e-05
 Reference value :  1.47564e-05
 Reference value :  1.47572e-05
 Reference value :  1.47584e-05
 Reference value :  1.47604e-05
 Reference value :  1.47623e-05
 Reference value :  1.47656e-05
 Reference value :  1.47696e-05
 Reference value :  1.47775e-05
 Reference value :  1.47935e-05
 Reference value :  1.48254e-05
 Reference value :  1.48892e-05
 Reference value :  1.50000e-05
 Reference value :  1.50000e-05
 Reference value :  1.50000e-05
 Reference value :  1.50001e-05
 Reference value :  1.50001e-05
 Reference value :  1.50001e-05
 Reference value :  1.50001e-05
 Reference value :  1.50001e-05
 Reference value :  1.50002e-05
 Reference value :  1.50002e-05
 Reference value :  1.50004e-05
 Reference value :  1.50005e-05
 Reference value :  1.50009e-05
 Reference value :  1.50014e-05
 Reference value :  1.50019e-05
 Reference value :  1.50025e-05
 Reference value :  1.50031e-05
 Reference value :  1.50038e-05
 Reference value :  1.50045e-05
 Reference value :  1.50054e-05
 Reference value :  1.50062e-05
 Reference value :  1.50073e-05
 Reference value :  1.50087e-05
 Reference value :  1.50099e-05
 Reference value :  1.50112e-05
 Reference value :  1.50123e-05
 Reference value :  1.50136e-05
 Reference value :  1.50149e-05
 Reference value :  1.50164e-05
 Reference value :  1.50194e-05
 Reference value :  1.50255e-05
 Reference value :  1.50362e-05
 Reference value :  1.50576e-05
 Reference value :  1.51004e-05
 Reference value :  1.51861e-05
 Reference value :  1.52501e-05
 Reference value :  1.52501e-05
 Reference value :  1.52501e-05
 Reference value :  1.52502e-05
 Reference value :  1.52502e-05
 Reference value :  1.52502e-05
 Reference value :  1.52502e-05
 Reference value :  1.52502e-05
 Reference value :  1.52502e-05
 Reference value :  1.52502e-05
 Reference value :  1.52502e-05
 Reference value :  1.52503e-05
 Reference value :  1.52504e-05
 Reference value :  1.52506e-05
 Reference value :  1.52509e-05
 Reference value :  1.52514e-05
 Reference value :  1.52520e-05
 Reference value :  1.52526e-05
 Reference value :  1.52533e-05
 Reference value :  1.52541e-05
 Reference value :  1.52547e-05
 Reference value :  1.52554e-05
 Reference value :  1.52561e-05
 Reference value :  1.52569e-05
 Reference value :  1.52578e-05
 Reference value :  1.52589e-05
 Reference value :  1.52610e-05
 Reference value :  1.52632e-05
 Reference value :  1.52669e-05
 Reference value :  1.52718e-05
 Reference value :  1.52815e-05
 Reference value :  1.53009e-05
 Reference value :  1.53396e-05
 Reference value :  1.54171e-05
 Reference value :  1.55000e-05
 Reference value :  1.55012e-05
 Reference value :  1.55035e-05
 Reference value :  1.55048e-05
 Reference value :  1.55060e-05
 Reference value :  1.55074e-05
 Reference value :  1.55086e-05
 Reference value :  1.55098e-05
 Reference value :  1.55112e-05
 Reference value :  1.55127e-05
 Reference value :  1.55148e-05
 Reference value :  1.55168e-05
 Reference value :  1.55187e-05
 Reference value :  1.55202e-05
 Reference value :  1.55216e-05
 Reference value :  1.55228e-05
 Reference value :  1.55243e-05
 Reference value :  1.55258e-05
 Reference value :  1.55276e-05
 Reference value :  1.55299e-05
 Reference value :  1.55331e-05
 Reference value :  1.55382e-05
 Reference value :  1.55430e-05
 Reference value :  1.55501e-05
 Reference value :  1.55611e-05
 Reference value :  1.55805e-05
 Reference value :  1.56152e-05
 Reference value :  1.56787e-05
 Reference value :  1.57501e-05
 Reference value :  1.57501e-05
 Reference value :  1.57501e-05
 Reference value :  1.57502e-05
 Reference value :  1.57502e-05
 Reference value :  1.57502e-05
 Reference value :  1.57502e-05
 Reference value :  1.57502e-05
 Reference value :  1.57502e-05
 Reference value :  1.57502e-05
 Reference value :  1.57502e-05
 Reference value :  1.57503e-05
 Reference value :  1.57504e-05
 Reference value :  1.57506e-05
 Reference value :  1.57509e-05
 Reference value :  1.57514e-05
 Reference value :  1.57520e-05
 Reference value :  1.57526e-05
 Reference value :  1.57533e-05
 Reference value :  1.57541e-05
 Reference value :  1.57547e-05
 Reference value :  1.57554e-05
 Reference value :  1.57563e-05
 Reference value :  1.57572e-05
 Reference value :  1.57582e-05
 Reference value :  1.57601e-05
 Reference value :  1.57621e-05
 Reference value :  1.57651e-05
 Reference value :  1.57690e-05
 Reference value :  1.57768e-05
 Reference value :  1.57923e-05
 Reference value :  1.58233e-05
 Reference value :  1.58853e-05
 Reference value :  1.60000e-05
 Reference value :  1.60000e-05
 Reference value :  1.60000e-05
 Reference value :  1.60001e-05
 Reference value :  1.60001e-05
 Reference value :  1.60001e-05
 Reference value :  1.60001e-05
 Reference value :  1.60001e-05
 Reference value :  1.60002e-05
 Reference value :  1.60002e-05
 Reference value :  1.60004e-05
 Reference value :  1.60005e-05
 Reference value :  1.60009e-05
 Reference value :  1.60014e-05
 Reference value :  1.60019e-05
 Reference value :  1.60025e-05
 Reference value :  1.60032e-05
 Reference value :  1.60039e-05
 Reference value :  1.60046e-05
 Reference value :  1.60055e-05
 Reference value :  1.60064e-05
 Reference value :  1.60076e-05
 Reference value :  1.60089e-05
 Reference value :  1.60102e-05
 Reference value :  1.60115e-05
 Reference value :  1.60127e-05
 Reference value :  1.60141e-05
 Reference value :  1.60154e-05
 Reference value :  1.60170e-05
 Reference value :  1.60201e-05
 Reference value :  1.60250e-05
 Reference value :  1.60349e-05
 Reference value :  1.60548e-05
 Reference value :  1.60944e-05
 Reference value :  1.61737e-05
 Reference value :  1.62501e-05
 Reference value :  1.62501e-05
 Reference value :  1.62501e-05
 Reference value :  1.62502e-05
 Reference value :  1.62502e-05
 Reference value :  1.62502e-05
 Reference value :  1.62502e-05
[...]
 Reference value :  2.67755e-04
 Reference value :  2.67756e-04
 Reference value :  2.67757e-04
 Reference value :  2.67758e-04
 Reference value :  2.67760e-04
 Reference value :  2.67762e-04
 Reference value :  2.67765e-04
 Reference value :  2.67769e-04
 Reference value :  2.67777e-04
 Reference value :  2.67792e-04
 Reference value :  2.67823e-04
 Reference value :  2.67885e-04
 Reference value :  2.68000e-04
 Reference value :  2.68000e-04
 Reference value :  2.68000e-04
 Reference value :  2.68000e-04
 Reference value :  2.68000e-04
 Reference value :  2.68000e-04
 Reference value :  2.68000e-04
 Reference value :  2.68000e-04
 Reference value :  2.68000e-04
 Reference value :  2.68000e-04
 Reference value :  2.68000e-04
 Reference value :  2.68001e-04
 Reference value :  2.68001e-04
 Reference value :  2.68001e-04
 Reference value :  2.68002e-04
 Reference value :  2.68002e-04
 Reference value :  2.68003e-04
 Reference value :  2.68004e-04
 Reference value :  2.68005e-04
 Reference value :  2.68005e-04
 Reference value :  2.68006e-04
 Reference value :  2.68007e-04
 Reference value :  2.68009e-04
 Reference value :  2.68010e-04
 Reference value :  2.68011e-04
 Reference value :  2.68012e-04
 Reference value :  2.68014e-04
 Reference value :  2.68015e-04
 Reference value :  2.68016e-04
 Reference value :  2.68019e-04
 Reference value :  2.68025e-04
 Reference value :  2.68036e-04
 Reference value :  2.68057e-04
 Reference value :  2.68100e-04
 Reference value :  2.68184e-04
 Reference value :  2.68250e-04
 Reference value :  2.68250e-04
 Reference value :  2.68250e-04
 Reference value :  2.68250e-04
 Reference value :  2.68250e-04
 Reference value :  2.68250e-04
 Reference value :  2.68250e-04
 Reference value :  2.68250e-04
 Reference value :  2.68250e-04
 Reference value :  2.68250e-04
 Reference value :  2.68250e-04
 Reference value :  2.68250e-04
 Reference value :  2.68250e-04
 Reference value :  2.68251e-04
 Reference value :  2.68251e-04
 Reference value :  2.68251e-04
 Reference value :  2.68252e-04
 Reference value :  2.68253e-04
 Reference value :  2.68253e-04
 Reference value :  2.68254e-04
 Reference value :  2.68255e-04
 Reference value :  2.68255e-04
 Reference value :  2.68256e-04
 Reference value :  2.68257e-04
 Reference value :  2.68258e-04
 Reference value :  2.68259e-04
 Reference value :  2.68260e-04
 Reference value :  2.68262e-04
 Reference value :  2.68264e-04
 Reference value :  2.68266e-04
 Reference value :  2.68269e-04
 Reference value :  2.68274e-04
 Reference value :  2.68283e-04
 Reference value :  2.68301e-04
 Reference value :  2.68338e-04
 Reference value :  2.68411e-04
 Reference value :  2.68500e-04
 Reference value :  2.68500e-04
 Reference value :  2.68500e-04
 Reference value :  2.68500e-04
 Reference value :  2.68500e-04
 Reference value :  2.68500e-04
 Reference value :  2.68500e-04
 Reference value :  2.68500e-04
 Reference value :  2.68500e-04
 Reference value :  2.68500e-04
 Reference value :  2.68500e-04
 Reference value :  2.68501e-04
 Reference value :  2.68501e-04
 Reference value :  2.68501e-04
 Reference value :  2.68502e-04
 Reference value :  2.68502e-04
 Reference value :  2.68503e-04
 Reference value :  2.68504e-04
 Reference value :  2.68505e-04
 Reference value :  2.68505e-04
 Reference value :  2.68506e-04
 Reference value :  2.68507e-04
 Reference value :  2.68507e-04
 Reference value :  2.68508e-04
 Reference value :  2.68509e-04
 Reference value :  2.68510e-04
 Reference value :  2.68512e-04
 Reference value :  2.68513e-04
 Reference value :  2.68514e-04
 Reference value :  2.68516e-04
 Reference value :  2.68517e-04
 Reference value :  2.68519e-04
 Reference value :  2.68520e-04
 Reference value :  2.68522e-04
 Reference value :  2.68523e-04
 Reference value :  2.68524e-04
 Reference value :  2.68526e-04
 Reference value :  2.68528e-04
 Reference value :  2.68530e-04
 Reference value :  2.68534e-04
 Reference value :  2.68540e-04
 Reference value :  2.68548e-04
 Reference value :  2.68563e-04
 Reference value :  2.68572e-04
 Reference value :  2.68584e-04
 Reference value :  2.68594e-04
 Reference value :  2.68611e-04
 Reference value :  2.68629e-04
 Reference value :  2.68647e-04
 Reference value :  2.68667e-04
 Reference value :  2.68690e-04
 Reference value :  2.68734e-04
 Reference value :  2.68750e-04
 Reference value :  2.68750e-04
 Reference value :  2.68750e-04
 Reference value :  2.68750e-04
 Reference value :  2.68750e-04
 Reference value :  2.68750e-04
 Reference value :  2.68750e-04
 Reference value :  2.68750e-04
 Reference value :  2.68750e-04
 Reference value :  2.68750e-04
 Reference value :  2.68750e-04
 Reference value :  2.68750e-04
 Reference value :  2.68750e-04
 Reference value :  2.68751e-04
 Reference value :  2.68751e-04
 Reference value :  2.68751e-04
 Reference value :  2.68752e-04
 Reference value :  2.68753e-04
 Reference value :  2.68753e-04
 Reference value :  2.68754e-04
 Reference value :  2.68755e-04
 Reference value :  2.68755e-04
 Reference value :  2.68756e-04
 Reference value :  2.68757e-04
 Reference value :  2.68758e-04
 Reference value :  2.68760e-04
 Reference value :  2.68762e-04
 Reference value :  2.68765e-04
 Reference value :  2.68769e-04
 Reference value :  2.68777e-04
 Reference value :  2.68792e-04
 Reference value :  2.68823e-04
 Reference value :  2.68886e-04
 Reference value :  2.69000e-04
 Reference value :  2.69000e-04
 Reference value :  2.69000e-04
 Reference value :  2.69000e-04
 Reference value :  2.69000e-04
 Reference value :  2.69000e-04
 Reference value :  2.69000e-04
 Reference value :  2.69000e-04
 Reference value :  2.69000e-04
 Reference value :  2.69000e-04
 Reference value :  2.69000e-04
 Reference value :  2.69001e-04
 Reference value :  2.69001e-04
 Reference value :  2.69001e-04
 Reference value :  2.69002e-04
 Reference value :  2.69002e-04
 Reference value :  2.69003e-04
 Reference value :  2.69004e-04
 Reference value :  2.69005e-04
 Reference value :  2.69005e-04
 Reference value :  2.69006e-04
 Reference value :  2.69008e-04
 Reference value :  2.69009e-04
 Reference value :  2.69010e-04
 Reference value :  2.69012e-04
 Reference value :  2.69013e-04
 Reference value :  2.69014e-04
 Reference value :  2.69016e-04
 Reference value :  2.69017e-04
 Reference value :  2.69021e-04
 Reference value :  2.69025e-04
 Reference value :  2.69034e-04
 Reference value :  2.69050e-04
 Reference value :  2.69079e-04
 Reference value :  2.69138e-04
 Reference value :  2.69250e-04
 Reference value :  2.69250e-04
 Reference value :  2.69250e-04
 Reference value :  2.69250e-04
 Reference value :  2.69250e-04
 Reference value :  2.69250e-04
 Reference value :  2.69250e-04
 Reference value :  2.69250e-04
 Reference value :  2.69250e-04
 Reference value :  2.69250e-04
 Reference value :  2.69250e-04
 Reference value :  2.69250e-04
 Reference value :  2.69250e-04
 Reference value :  2.69251e-04
 Reference value :  2.69251e-04
 Reference value :  2.69251e-04
 Reference value :  2.69252e-04
 Reference value :  2.69253e-04
 Reference value :  2.69253e-04
 Reference value :  2.69254e-04
 Reference value :  2.69255e-04
 Reference value :  2.69255e-04
 Reference value :  2.69256e-04
 Reference value :  2.69257e-04
 Reference value :  2.69258e-04
 Reference value :  2.69259e-04
 Reference value :  2.69260e-04
 Reference value :  2.69261e-04
 Reference value :  2.69264e-04
 Reference value :  2.69266e-04
 Reference value :  2.69269e-04
 Reference value :  2.69274e-04
 Reference value :  2.69283e-04
 Reference value :  2.69301e-04
 Reference value :  2.69337e-04
 Reference value :  2.69408e-04
 Reference value :  2.69500e-04
 Reference value :  2.69500e-04
 Reference value :  2.69500e-04
 Reference value :  2.69500e-04
 Reference value :  2.69500e-04
 Reference value :  2.69500e-04
 Reference value :  2.69500e-04
 Reference value :  2.69500e-04
 Reference value :  2.69500e-04
 Reference value :  2.69500e-04
 Reference value :  2.69500e-04
 Reference value :  2.69501e-04
 Reference value :  2.69501e-04
 Reference value :  2.69501e-04
 Reference value :  2.69502e-04
 Reference value :  2.69502e-04
 Reference value :  2.69503e-04
 Reference value :  2.69504e-04
 Reference value :  2.69505e-04
 Reference value :  2.69505e-04
 Reference value :  2.69506e-04
 Reference value :  2.69507e-04
 Reference value :  2.69507e-04
 Reference value :  2.69508e-04
 Reference value :  2.69509e-04
 Reference value :  2.69510e-04
 Reference value :  2.69512e-04
 Reference value :  2.69513e-04
 Reference value :  2.69515e-04
 Reference value :  2.69516e-04
 Reference value :  2.69518e-04
 Reference value :  2.69519e-04
 Reference value :  2.69521e-04
 Reference value :  2.69522e-04
 Reference value :  2.69524e-04
 Reference value :  2.69525e-04
 Reference value :  2.69527e-04
 Reference value :  2.69530e-04
 Reference value :  2.69533e-04
 Reference value :  2.69539e-04
 Reference value :  2.69545e-04
 Reference value :  2.69550e-04
 Reference value :  2.69557e-04
 Reference value :  2.69567e-04
 Reference value :  2.69583e-04
 Reference value :  2.69614e-04
 Reference value :  2.69670e-04
 Reference value :  2.69750e-04
 Reference value :  2.69750e-04
 Reference value :  2.69750e-04
 Reference value :  2.69750e-04
 Reference value :  2.69750e-04
 Reference value :  2.69750e-04
 Reference value :  2.69750e-04
 Reference value :  2.69750e-04
 Reference value :  2.69750e-04
 Reference value :  2.69750e-04
 Reference value :  2.69750e-04
 Reference value :  2.69750e-04
 Reference value :  2.69750e-04
 Reference value :  2.69751e-04
 Reference value :  2.69751e-04
 Reference value :  2.69751e-04
 Reference value :  2.69752e-04
 Reference value :  2.69753e-04
 Reference value :  2.69753e-04
 Reference value :  2.69754e-04
 Reference value :  2.69755e-04
 Reference value :  2.69755e-04
 Reference value :  2.69756e-04
 Reference value :  2.69757e-04
 Reference value :  2.69758e-04
 Reference value :  2.69760e-04
 Reference value :  2.69762e-04
 Reference value :  2.69765e-04
 Reference value :  2.69769e-04
 Reference value :  2.69777e-04
 Reference value :  2.69792e-04
 Reference value :  2.69823e-04
 Reference value :  2.69885e-04
 Reference value :  2.70000e-04
 Reference value :  2.70000e-04
 Reference value :  2.70000e-04
 Reference value :  2.70000e-04
 Reference value :  2.70000e-04
 Reference value :  2.70000e-04
 Reference value :  2.70000e-04
 Reference value :  2.70000e-04
 Reference value :  2.70000e-04
 Reference value :  2.70000e-04
 Reference value :  2.70000e-04
 Reference value :  2.70001e-04
 Reference value :  2.70001e-04
 Reference value :  2.70001e-04
 Reference value :  2.70002e-04
 Reference value :  2.70002e-04
 Reference value :  2.70003e-04
 Reference value :  2.70004e-04
 Reference value :  2.70005e-04
 Reference value :  2.70005e-04
 Reference value :  2.70006e-04
 Reference value :  2.70007e-04
 Reference value :  2.70009e-04
 Reference value :  2.70010e-04
 Reference value :  2.70011e-04
 Reference value :  2.70012e-04
 Reference value :  2.70014e-04
 Reference value :  2.70015e-04
 Reference value :  2.70016e-04
 Reference value :  2.70019e-04
 Reference value :  2.70025e-04
 Reference value :  2.70036e-04
 Reference value :  2.70056e-04
 Reference value :  2.70098e-04
 Reference value :  2.70181e-04
 Reference value :  2.70250e-04
 Reference value :  2.70250e-04
 Reference value :  2.70250e-04
 Reference value :  2.70250e-04
 Reference value :  2.70250e-04
 Reference value :  2.70250e-04
 Reference value :  2.70250e-04
 Reference value :  2.70250e-04
 Reference value :  2.70250e-04
 Reference value :  2.70250e-04
 Reference value :  2.70250e-04
 Reference value :  2.70250e-04
 Reference value :  2.70250e-04
 Reference value :  2.70251e-04
 Reference value :  2.70251e-04
 Reference value :  2.70251e-04
 Reference value :  2.70252e-04
 Reference value :  2.70253e-04
 Reference value :  2.70253e-04
 Reference value :  2.70254e-04
 Reference value :  2.70255e-04
 Reference value :  2.70255e-04
 Reference value :  2.70256e-04
 Reference value :  2.70257e-04
 Reference value :  2.70258e-04
 Reference value :  2.70259e-04
 Reference value :  2.70260e-04
 Reference value :  2.70262e-04
 Reference value :  2.70264e-04
 Reference value :  2.70266e-04
 Reference value :  2.70269e-04
 Reference value :  2.70274e-04
 Reference value :  2.70283e-04
 Reference value :  2.70301e-04
 Reference value :  2.70337e-04
 Reference value :  2.70410e-04
 Reference value :  2.70500e-04
 Reference value :  2.70500e-04
 Reference value :  2.70500e-04
 Reference value :  2.70500e-04
 Reference value :  2.70500e-04
 Reference value :  2.70500e-04
 Reference value :  2.70500e-04
 Reference value :  2.70500e-04
 Reference value :  2.70500e-04
 Reference value :  2.70500e-04
 Reference value :  2.70500e-04
 Reference value :  2.70501e-04
 Reference value :  2.70501e-04
 Reference value :  2.70501e-04
 Reference value :  2.70502e-04
 Reference value :  2.70502e-04
 Reference value :  2.70503e-04
 Reference value :  2.70504e-04
 Reference value :  2.70505e-04
 Reference value :  2.70505e-04
 Reference value :  2.70506e-04
 Reference value :  2.70507e-04
 Reference value :  2.70507e-04
 Reference value :  2.70508e-04
 Reference value :  2.70509e-04
 Reference value :  2.70510e-04
 Reference value :  2.70512e-04
 Reference value :  2.70513e-04
 Reference value :  2.70514e-04
 Reference value :  2.70516e-04
 Reference value :  2.70517e-04
 Reference value :  2.70519e-04
 Reference value :  2.70520e-04
 Reference value :  2.70522e-04
 Reference value :  2.70523e-04
 Reference value :  2.70524e-04
 Reference value :  2.70526e-04
 Reference value :  2.70528e-04
 Reference value :  2.70530e-04
 Reference value :  2.70534e-04
 Reference value :  2.70538e-04
 Reference value :  2.70544e-04
 Reference value :  2.70550e-04
 Reference value :  2.70564e-04
 Reference value :  2.70585e-04
 Reference value :  2.70618e-04
 Reference value :  2.70686e-04
 Reference value :  2.70750e-04
 Reference value :  2.70750e-04
 Reference value :  2.70750e-04
 Reference value :  2.70750e-04
 Reference value :  2.70750e-04
 Reference value :  2.70750e-04
 Reference value :  2.70750e-04
 Reference value :  2.70750e-04
 Reference value :  2.70750e-04
 Reference value :  2.70750e-04
 Reference value :  2.70750e-04
 Reference value :  2.70750e-04
 Reference value :  2.70750e-04
 Reference value :  2.70751e-04
 Reference value :  2.70751e-04
 Reference value :  2.70751e-04
 Reference value :  2.70752e-04
 Reference value :  2.70753e-04
 Reference value :  2.70753e-04
 Reference value :  2.70754e-04
 Reference value :  2.70755e-04
 Reference value :  2.70755e-04
 Reference value :  2.70756e-04
 Reference value :  2.70757e-04
 Reference value :  2.70758e-04
 Reference value :  2.70760e-04
 Reference value :  2.70762e-04
 Reference value :  2.70765e-04
 Reference value :  2.70769e-04
 Reference value :  2.70776e-04
 Reference value :  2.70792e-04
 Reference value :  2.70821e-04
 Reference value :  2.70880e-04
 Reference value :  2.70998e-04
 Reference value :  2.71000e-04
 Reference value :  2.71000e-04
 Reference value :  2.71000e-04
 Reference value :  2.71000e-04
 Reference value :  2.71000e-04
 Reference value :  2.71000e-04
 Reference value :  2.71000e-04
 Reference value :  2.71000e-04
 Reference value :  2.71000e-04
 Reference value :  2.71000e-04
 Reference value :  2.71000e-04
 Reference value :  2.71001e-04
 Reference value :  2.71001e-04
 Reference value :  2.71001e-04
 Reference value :  2.71002e-04
 Reference value :  2.71002e-04
 Reference value :  2.71003e-04
 Reference value :  2.71004e-04
 Reference value :  2.71005e-04
 Reference value :  2.71005e-04
 Reference value :  2.71006e-04
 Reference value :  2.71008e-04
 Reference value :  2.71009e-04
 Reference value :  2.71010e-04
 Reference value :  2.71012e-04
 Reference value :  2.71013e-04
 Reference value :  2.71014e-04
 Reference value :  2.71016e-04
 Reference value :  2.71018e-04
 Reference value :  2.71021e-04
 Reference value :  2.71025e-04
 Reference value :  2.71034e-04
 Reference value :  2.71051e-04
 Reference value :  2.71082e-04
 Reference value :  2.71145e-04
 Reference value :  2.71250e-04
 Reference value :  2.71250e-04
 Reference value :  2.71250e-04
 Reference value :  2.71250e-04
 Reference value :  2.71250e-04
 Reference value :  2.71250e-04
 Reference value :  2.71250e-04
 Reference value :  2.71250e-04
 Reference value :  2.71250e-04
 Reference value :  2.71250e-04
 Reference value :  2.71250e-04
 Reference value :  2.71250e-04
 Reference value :  2.71250e-04
 Reference value :  2.71251e-04
 Reference value :  2.71251e-04
 Reference value :  2.71251e-04
 Reference value :  2.71252e-04
 Reference value :  2.71253e-04
 Reference value :  2.71253e-04
 Reference value :  2.71254e-04
 Reference value :  2.71255e-04
 Reference value :  2.71255e-04
 Reference value :  2.71256e-04
 Reference value :  2.71257e-04
 Reference value :  2.71258e-04
 Reference value :  2.71259e-04
 Reference value :  2.71260e-04
 Reference value :  2.71261e-04
 Reference value :  2.71263e-04
 Reference value :  2.71265e-04
 Reference value :  2.71268e-04
 Reference value :  2.71272e-04
 Reference value :  2.71281e-04
 Reference value :  2.71298e-04
 Reference value :  2.71332e-04
 Reference value :  2.71400e-04
 Reference value :  2.71500e-04
 Reference value :  2.71500e-04
 Reference value :  2.71500e-04
 Reference value :  2.71500e-04
 Reference value :  2.71500e-04
 Reference value :  2.71500e-04
 Reference value :  2.71500e-04
 Reference value :  2.71500e-04
 Reference value :  2.71500e-04
 Reference value :  2.71500e-04
 Reference value :  2.71500e-04
 Reference value :  2.71501e-04
 Reference value :  2.71501e-04
 Reference value :  2.71501e-04
 Reference value :  2.71502e-04
 Reference value :  2.71502e-04
 Reference value :  2.71503e-04
 Reference value :  2.71504e-04
 Reference value :  2.71505e-04
 Reference value :  2.71505e-04
 Reference value :  2.71506e-04
 Reference value :  2.71507e-04
 Reference value :  2.71507e-04
 Reference value :  2.71508e-04
 Reference value :  2.71509e-04
 Reference value :  2.71510e-04
 Reference value :  2.71512e-04
 Reference value :  2.71513e-04
 Reference value :  2.71515e-04
 Reference value :  2.71516e-04
 Reference value :  2.71517e-04
 Reference value :  2.71519e-04
 Reference value :  2.71521e-04
 Reference value :  2.71523e-04
 Reference value :  2.71525e-04
 Reference value :  2.71527e-04
 Reference value :  2.71530e-04
 Reference value :  2.71535e-04
 Reference value :  2.71543e-04
 Reference value :  2.71557e-04
 Reference value :  2.71571e-04
 Reference value :  2.71600e-04
 Reference value :  2.71628e-04
 Reference value :  2.71648e-04
 Reference value :  2.71666e-04
 Reference value :  2.71689e-04
 Reference value :  2.71716e-04
 Reference value :  2.71744e-04
 Reference value :  2.71750e-04
 Reference value :  2.71750e-04
 Reference value :  2.71750e-04
 Reference value :  2.71750e-04
 Reference value :  2.71750e-04
 Reference value :  2.71750e-04
 Reference value :  2.71750e-04
 Reference value :  2.71750e-04
 Reference value :  2.71750e-04
 Reference value :  2.71750e-04
 Reference value :  2.71750e-04
 Reference value :  2.71750e-04
 Reference value :  2.71750e-04
 Reference value :  2.71751e-04
 Reference value :  2.71751e-04
 Reference value :  2.71751e-04
 Reference value :  2.71752e-04
 Reference value :  2.71753e-04
 Reference value :  2.71753e-04
 Reference value :  2.71754e-04
 Reference value :  2.71755e-04
 Reference value :  2.71756e-04
 Reference value :  2.71758e-04
 Reference value :  2.71759e-04
 Reference value :  2.71761e-04
 Reference value :  2.71764e-04
 Reference value :  2.71767e-04
 Reference value :  2.71773e-04
 Reference value :  2.71784e-04
 Reference value :  2.71807e-04
 Reference value :  2.71851e-04
 Reference value :  2.71941e-04
 Reference value :  2.72000e-04
No. of Data Rows : 41371
ngspice-44 done
