
Note: Compatibility modes selected: hs a


Circuit: ** sch_path: /home/ece/cace/sar-adc-using-sky130-pdk/runs/run_2025-09-13_01-34-31/parameters/dnl/run_1/sar_output_dnl.sch

option SCALE: Scale is set to 1e-06 for instance and model parameters
option SCALE: Scale is set to 1e-06 for instance and model parameters
option SCALE: Scale is set to 1e-06 for instance and model parameters
option SCALE: Scale is set to 1e-06 for instance and model parameters
Doing analysis at TEMP = 27.000000 and TNOM = 27.000000

Using KLU as Direct Linear Solver
Operating point simulation skipped by 'uic',
  now using transient initial conditions.
 Reference value :  1.00000e-12
 Reference value :  1.08400e-12
 Reference value :  1.42000e-12
 Reference value :  3.16832e-12
 Reference value :  6.24762e-12
 Reference value :  1.94775e-11
 Reference value :  1.04813e-10
 Reference value :  2.49202e-10
 Reference value :  6.44282e-10
 Reference value :  1.34484e-09
 Reference value :  3.30891e-09
 Reference value :  6.05338e-09
 Reference value :  7.76112e-09
 Reference value :  8.41543e-09
 Reference value :  9.83110e-09
 Reference value :  1.20772e-08
 Reference value :  1.32116e-08
 Reference value :  1.47945e-08
 Reference value :  2.03542e-08
 Reference value :  3.08631e-08
 Reference value :  6.73633e-08
 Reference value :  2.50130e-07
 Reference value :  2.50252e-07
 Reference value :  2.50991e-07
 Reference value :  2.53144e-07
 Reference value :  2.55252e-07
 Reference value :  2.60918e-07
 Reference value :  3.05354e-07
 Reference value :  4.61118e-07
 Reference value :  5.00070e-07
 Reference value :  5.00220e-07
 Reference value :  5.01299e-07
 Reference value :  5.02767e-07
 Reference value :  5.04678e-07
 Reference value :  5.09175e-07
 Reference value :  5.13345e-07
 Reference value :  5.16351e-07
 Reference value :  5.20263e-07
 Reference value :  5.24729e-07
 Reference value :  5.30049e-07
 Reference value :  5.45235e-07
 Reference value :  5.63664e-07
 Reference value :  6.35089e-07
 Reference value :  7.50130e-07
 Reference value :  7.50208e-07
 Reference value :  7.50446e-07
 Reference value :  7.51531e-07
 Reference value :  7.54059e-07
 Reference value :  7.55349e-07
 Reference value :  7.58803e-07
 Reference value :  7.65371e-07
 Reference value :  8.20412e-07
 Reference value :  1.00003e-06
 Reference value :  1.00012e-06
 Reference value :  1.00052e-06
 Reference value :  1.00130e-06
 Reference value :  1.00224e-06
 Reference value :  1.00404e-06
 Reference value :  1.00458e-06
 Reference value :  1.00583e-06
 Reference value :  1.00711e-06
 Reference value :  1.01046e-06
 Reference value :  1.01144e-06
 Reference value :  1.01377e-06
 Reference value :  1.01611e-06
 Reference value :  1.01833e-06
 Reference value :  1.02431e-06
 Reference value :  1.06531e-06
 Reference value :  1.09630e-06
 Reference value :  1.10816e-06
 Reference value :  1.12465e-06
 Reference value :  1.24158e-06
 Reference value :  1.25013e-06
 Reference value :  1.25020e-06
 Reference value :  1.25032e-06
 Reference value :  1.25106e-06
 Reference value :  1.25204e-06
 Reference value :  1.25407e-06
 Reference value :  1.25538e-06
 Reference value :  1.25695e-06
 Reference value :  1.26532e-06
 Reference value :  1.33331e-06
 Reference value :  1.50003e-06
 Reference value :  1.50012e-06
 Reference value :  1.50086e-06
 Reference value :  1.50224e-06
 Reference value :  1.50399e-06
 Reference value :  1.50533e-06
 Reference value :  1.50729e-06
 Reference value :  1.50924e-06
 Reference value :  1.51236e-06
 Reference value :  1.55039e-06
 Reference value :  1.75013e-06
 Reference value :  1.75022e-06
 Reference value :  1.75070e-06
 Reference value :  1.75204e-06
 Reference value :  1.75406e-06
 Reference value :  1.75540e-06
 Reference value :  1.75789e-06
 Reference value :  1.77139e-06
 Reference value :  1.98516e-06
 Reference value :  2.00010e-06
 Reference value :  2.00035e-06
 Reference value :  2.00130e-06
 Reference value :  2.00224e-06
 Reference value :  2.00458e-06
 Reference value :  2.00643e-06
 Reference value :  2.01256e-06
 Reference value :  2.01537e-06
 Reference value :  2.01909e-06
 Reference value :  2.03417e-06
 Reference value :  2.25010e-06
 Reference value :  2.25022e-06
 Reference value :  2.25106e-06
 Reference value :  2.25326e-06
 Reference value :  2.25534e-06
 Reference value :  2.25778e-06
 Reference value :  2.29905e-06
 Reference value :  2.50007e-06
 Reference value :  2.50035e-06
 Reference value :  2.50176e-06
 Reference value :  2.50400e-06
 Reference value :  2.50629e-06
 Reference value :  2.50925e-06
 Reference value :  2.51363e-06
 Reference value :  2.58935e-06
 Reference value :  2.75017e-06
 Reference value :  2.75045e-06
 Reference value :  2.75204e-06
 Reference value :  2.75470e-06
 Reference value :  2.75696e-06
 Reference value :  2.78198e-06
 Reference value :  3.00001e-06
 Reference value :  3.00012e-06
 Reference value :  3.00086e-06
 Reference value :  3.00224e-06
 Reference value :  3.00458e-06
 Reference value :  3.00643e-06
 Reference value :  3.01256e-06
 Reference value :  3.01537e-06
 Reference value :  3.01909e-06
 Reference value :  3.02535e-06
 Reference value :  3.05844e-06
 Reference value :  3.10145e-06
 Reference value :  3.13072e-06
 Reference value :  3.15150e-06
 Reference value :  3.19041e-06
 Reference value :  3.21586e-06
 Reference value :  3.23561e-06
 Reference value :  3.25017e-06
 Reference value :  3.25032e-06
 Reference value :  3.25105e-06
 Reference value :  3.25202e-06
 Reference value :  3.25405e-06
 Reference value :  3.25534e-06
 Reference value :  3.25687e-06
 Reference value :  3.26170e-06
 Reference value :  3.32506e-06
 Reference value :  3.50003e-06
 Reference value :  3.50012e-06
 Reference value :  3.50086e-06
 Reference value :  3.50224e-06
 Reference value :  3.50464e-06
 Reference value :  3.50730e-06
 Reference value :  3.50925e-06
 Reference value :  3.51237e-06
 Reference value :  3.55040e-06
 Reference value :  3.75013e-06
 Reference value :  3.75026e-06
 Reference value :  3.75106e-06
 Reference value :  3.75256e-06
 Reference value :  3.75469e-06
 Reference value :  3.75696e-06
 Reference value :  3.79943e-06
 Reference value :  4.00003e-06
 Reference value :  4.00022e-06
 Reference value :  4.00130e-06
 Reference value :  4.00277e-06
 Reference value :  4.00458e-06
 Reference value :  4.00582e-06
 Reference value :  4.00800e-06
 Reference value :  4.01402e-06
 Reference value :  4.01670e-06
 Reference value :  4.01908e-06
 Reference value :  4.02535e-06
 Reference value :  4.03837e-06
 Reference value :  4.05300e-06
 Reference value :  4.06656e-06
 Reference value :  4.09446e-06
 Reference value :  4.25010e-06
 Reference value :  4.25020e-06
 Reference value :  4.25045e-06
 Reference value :  4.25152e-06
 Reference value :  4.25254e-06
 Reference value :  4.25464e-06
 Reference value :  4.25691e-06
 Reference value :  4.27117e-06
 Reference value :  4.49972e-06
 Reference value :  4.50007e-06
 Reference value :  4.50022e-06
 Reference value :  4.50086e-06
 Reference value :  4.50130e-06
 Reference value :  4.50221e-06
 Reference value :  4.50332e-06
 Reference value :  4.50485e-06
 Reference value :  4.50674e-06
 Reference value :  4.50753e-06
 Reference value :  4.50946e-06
 Reference value :  4.51277e-06
 Reference value :  4.52843e-06
 Reference value :  4.61702e-06
 Reference value :  4.75011e-06
 Reference value :  4.75021e-06
 Reference value :  4.75045e-06
 Reference value :  4.75152e-06
 Reference value :  4.75254e-06
 Reference value :  4.75403e-06
 Reference value :  4.75532e-06
 Reference value :  4.75696e-06
 Reference value :  4.75884e-06
 Reference value :  4.76125e-06
 Reference value :  4.76905e-06
 Reference value :  4.79874e-06
 Reference value :  4.91730e-06
 Reference value :  5.00003e-06
 Reference value :  5.00011e-06
 Reference value :  5.00022e-06
 Reference value :  5.00086e-06
 Reference value :  5.00130e-06
 Reference value :  5.00224e-06
 Reference value :  5.00340e-06
 Reference value :  5.00457e-06
 Reference value :  5.00583e-06
 Reference value :  5.00644e-06
 Reference value :  5.00802e-06
 Reference value :  5.01047e-06
 Reference value :  5.01146e-06
 Reference value :  5.01378e-06
 Reference value :  5.01619e-06
 Reference value :  5.01972e-06
 Reference value :  5.02475e-06
 Reference value :  5.03121e-06
 Reference value :  5.04334e-06
 Reference value :  5.04943e-06
 Reference value :  5.06147e-06
 Reference value :  5.11338e-06
 Reference value :  5.19014e-06
 Reference value :  5.25010e-06
 Reference value :  5.25013e-06
 Reference value :  5.25021e-06
 Reference value :  5.25032e-06
 Reference value :  5.25105e-06
 Reference value :  5.25203e-06
 Reference value :  5.25402e-06
 Reference value :  5.25625e-06
 Reference value :  5.26039e-06
 Reference value :  5.28560e-06
 Reference value :  5.46962e-06
 Reference value :  5.50007e-06
 Reference value :  5.50016e-06
 Reference value :  5.50052e-06
 Reference value :  5.50130e-06
 Reference value :  5.50221e-06
 Reference value :  5.50407e-06
 Reference value :  5.50676e-06
 Reference value :  5.50843e-06
 Reference value :  5.51057e-06
 Reference value :  5.51278e-06
 Reference value :  5.52837e-06
 Reference value :  5.56671e-06
 Reference value :  5.71391e-06
 Reference value :  5.75013e-06
 Reference value :  5.75020e-06
 Reference value :  5.75026e-06
 Reference value :  5.75070e-06
 Reference value :  5.75202e-06
 Reference value :  5.75402e-06
 Reference value :  5.75531e-06
 Reference value :  5.75694e-06
 Reference value :  5.75784e-06
 Reference value :  5.76122e-06
 Reference value :  5.76901e-06
 Reference value :  5.82133e-06
 Reference value :  5.91664e-06
 Reference value :  6.00003e-06
 Reference value :  6.00011e-06
 Reference value :  6.00022e-06
 Reference value :  6.00035e-06
 Reference value :  6.00052e-06
 Reference value :  6.00176e-06
 Reference value :  6.00277e-06
 Reference value :  6.00457e-06
 Reference value :  6.00521e-06
 Reference value :  6.00583e-06
 Reference value :  6.00712e-06
 Reference value :  6.00901e-06
 Reference value :  6.01145e-06
 Reference value :  6.01378e-06
 Reference value :  6.01619e-06
 Reference value :  6.01851e-06
 Reference value :  6.02115e-06
 Reference value :  6.02437e-06
 Reference value :  6.02809e-06
 Reference value :  6.03143e-06
 Reference value :  6.04121e-06
 Reference value :  6.08089e-06
 Reference value :  6.25010e-06
 Reference value :  6.25013e-06
 Reference value :  6.25021e-06
 Reference value :  6.25026e-06
 Reference value :  6.25070e-06
 Reference value :  6.25105e-06
 Reference value :  6.25152e-06
 Reference value :  6.25202e-06
 Reference value :  6.25326e-06
 Reference value :  6.25465e-06
 Reference value :  6.25599e-06
 Reference value :  6.25776e-06
 Reference value :  6.26167e-06
 Reference value :  6.27051e-06
 Reference value :  6.33065e-06
 Reference value :  6.50000e-06
 Reference value :  6.50003e-06
 Reference value :  6.50010e-06
 Reference value :  6.50012e-06
 Reference value :  6.50022e-06
 Reference value :  6.50052e-06
 Reference value :  6.50130e-06
 Reference value :  6.50224e-06
 Reference value :  6.50340e-06
 Reference value :  6.50463e-06
 Reference value :  6.50628e-06
 Reference value :  6.50730e-06
 Reference value :  6.50826e-06
 Reference value :  6.50925e-06
 Reference value :  6.51019e-06
 Reference value :  6.51237e-06
 Reference value :  6.52122e-06
 Reference value :  6.58910e-06
 Reference value :  6.75013e-06
 Reference value :  6.75021e-06
 Reference value :  6.75032e-06
 Reference value :  6.75105e-06
 Reference value :  6.75203e-06
 Reference value :  6.75328e-06
 Reference value :  6.75468e-06
 Reference value :  6.75608e-06
 Reference value :  6.75792e-06
 Reference value :  6.76551e-06
 Reference value :  6.79983e-06
 Reference value :  6.97882e-06
 Reference value :  7.00003e-06
 Reference value :  7.00011e-06
 Reference value :  7.00022e-06
 Reference value :  7.00086e-06
 Reference value :  7.00176e-06
 Reference value :  7.00224e-06
 Reference value :  7.00403e-06
 Reference value :  7.00520e-06
 Reference value :  7.00582e-06
 Reference value :  7.00711e-06
 Reference value :  7.01062e-06
 Reference value :  7.01402e-06
 Reference value :  7.01536e-06
 Reference value :  7.01795e-06
 Reference value :  7.02031e-06
 Reference value :  7.02346e-06
 Reference value :  7.03400e-06
 Reference value :  7.07383e-06
 Reference value :  7.22086e-06
 Reference value :  7.25013e-06
 Reference value :  7.25021e-06
 Reference value :  7.25032e-06
 Reference value :  7.25105e-06
 Reference value :  7.25203e-06
 Reference value :  7.25406e-06
 Reference value :  7.25536e-06
 Reference value :  7.25691e-06
 Reference value :  7.26519e-06
 Reference value :  7.38492e-06
 Reference value :  7.50003e-06
 Reference value :  7.50011e-06
 Reference value :  7.50022e-06
 Reference value :  7.50086e-06
 Reference value :  7.50176e-06
 Reference value :  7.50277e-06
 Reference value :  7.50464e-06
 Reference value :  7.50629e-06
 Reference value :  7.50827e-06
 Reference value :  7.50926e-06
 Reference value :  7.51020e-06
 Reference value :  7.51238e-06
 Reference value :  7.52123e-06
 Reference value :  7.66692e-06
 Reference value :  7.75013e-06
 Reference value :  7.75021e-06
 Reference value :  7.75045e-06
 Reference value :  7.75153e-06
 Reference value :  7.75256e-06
 Reference value :  7.75405e-06
 Reference value :  7.75537e-06
 Reference value :  7.75792e-06
 Reference value :  7.77149e-06
 Reference value :  7.88481e-06
 Reference value :  8.00003e-06
 Reference value :  8.00016e-06
 Reference value :  8.00086e-06
 Reference value :  8.00224e-06
 Reference value :  8.00403e-06
 Reference value :  8.00520e-06
 Reference value :  8.00643e-06
 Reference value :  8.01001e-06
 Reference value :  8.01448e-06
 Reference value :  8.03312e-06
 Reference value :  8.15513e-06
 Reference value :  8.25013e-06
 Reference value :  8.25020e-06
 Reference value :  8.25026e-06
 Reference value :  8.25070e-06
 Reference value :  8.25202e-06
 Reference value :  8.25421e-06
 Reference value :  8.25723e-06
 Reference value :  8.26282e-06
 Reference value :  8.28046e-06
 Reference value :  8.31564e-06
 Reference value :  8.50000e-06
 Reference value :  8.50000e-06
 Reference value :  8.50000e-06
 Reference value :  8.50002e-06
 Reference value :  8.50010e-06
 Reference value :  8.50014e-06
 Reference value :  8.50045e-06
 Reference value :  8.50128e-06
 Reference value :  8.50245e-06
 Reference value :  8.50369e-06
 Reference value :  8.50512e-06
 Reference value :  8.50631e-06
 Reference value :  8.50785e-06
 Reference value :  8.51506e-06
 Reference value :  8.52877e-06
 Reference value :  8.53374e-06
 Reference value :  8.53743e-06
 Reference value :  8.54007e-06
 Reference value :  8.54414e-06
 Reference value :  8.54707e-06
 Reference value :  8.54923e-06
 Reference value :  8.55547e-06
 Reference value :  8.56262e-06
 Reference value :  8.57782e-06
 Reference value :  8.61459e-06
 Reference value :  8.68747e-06
 Reference value :  8.75011e-06
 Reference value :  8.75020e-06
 Reference value :  8.75032e-06
 Reference value :  8.75105e-06
 Reference value :  8.75203e-06
 Reference value :  8.75405e-06
 Reference value :  8.75535e-06
 Reference value :  8.75695e-06
 Reference value :  8.76191e-06
 Reference value :  8.79952e-06
 Reference value :  9.00000e-06
 Reference value :  9.00010e-06
 Reference value :  9.00022e-06
 Reference value :  9.00130e-06
 Reference value :  9.00224e-06
 Reference value :  9.00399e-06
 Reference value :  9.00535e-06
 Reference value :  9.00909e-06
 Reference value :  9.01189e-06
 Reference value :  9.01483e-06
 Reference value :  9.01782e-06
 Reference value :  9.02225e-06
 Reference value :  9.04236e-06
 Reference value :  9.15615e-06
 Reference value :  9.24467e-06
 Reference value :  9.25011e-06
 Reference value :  9.25020e-06
 Reference value :  9.25032e-06
 Reference value :  9.25105e-06
 Reference value :  9.25202e-06
 Reference value :  9.25403e-06
 Reference value :  9.25530e-06
 Reference value :  9.25687e-06
 Reference value :  9.25859e-06
 Reference value :  9.26068e-06
 Reference value :  9.27209e-06
 Reference value :  9.35788e-06
 Reference value :  9.50003e-06
 Reference value :  9.50012e-06
 Reference value :  9.50052e-06
 Reference value :  9.50130e-06
 Reference value :  9.50277e-06
 Reference value :  9.50457e-06
 Reference value :  9.50583e-06
 Reference value :  9.50711e-06
 Reference value :  9.51046e-06
 Reference value :  9.51144e-06
 Reference value :  9.51377e-06
 Reference value :  9.51611e-06
 Reference value :  9.51836e-06
 Reference value :  9.52084e-06
 Reference value :  9.52659e-06
 Reference value :  9.56237e-06
 Reference value :  9.59179e-06
 Reference value :  9.61009e-06
 Reference value :  9.62138e-06
 Reference value :  9.66285e-06
 Reference value :  9.75011e-06
 Reference value :  9.75020e-06
 Reference value :  9.75032e-06
 Reference value :  9.75105e-06
 Reference value :  9.75203e-06
 Reference value :  9.75406e-06
 Reference value :  9.75535e-06
 Reference value :  9.75690e-06
 Reference value :  9.76178e-06
 Reference value :  9.79868e-06
 Reference value :  1.00000e-05
 Reference value :  1.00001e-05
 Reference value :  1.00002e-05
 Reference value :  1.00005e-05
 Reference value :  1.00013e-05
 Reference value :  1.00022e-05
 Reference value :  1.00040e-05
 Reference value :  1.00053e-05
 Reference value :  1.00073e-05
 Reference value :  1.00093e-05
 Reference value :  1.00112e-05
 Reference value :  1.00162e-05
 Reference value :  1.00503e-05
 Reference value :  1.02501e-05
 Reference value :  1.02502e-05
 Reference value :  1.02502e-05
 Reference value :  1.02504e-05
 Reference value :  1.02511e-05
 Reference value :  1.02520e-05
 Reference value :  1.02533e-05
 Reference value :  1.02547e-05
 Reference value :  1.02561e-05
 Reference value :  1.02579e-05
 Reference value :  1.02655e-05
 Reference value :  1.03310e-05
 Reference value :  1.05000e-05
 Reference value :  1.05001e-05
 Reference value :  1.05001e-05
 Reference value :  1.05003e-05
 Reference value :  1.05013e-05
 Reference value :  1.05022e-05
 Reference value :  1.05034e-05
 Reference value :  1.05046e-05
 Reference value :  1.05058e-05
 Reference value :  1.05071e-05
 Reference value :  1.05106e-05
 Reference value :  1.05140e-05
 Reference value :  1.05167e-05
 Reference value :  1.05191e-05
 Reference value :  1.05234e-05
 Reference value :  1.05423e-05
 Reference value :  1.06129e-05
 Reference value :  1.07501e-05
 Reference value :  1.07502e-05
 Reference value :  1.07503e-05
 Reference value :  1.07511e-05
 Reference value :  1.07520e-05
 Reference value :  1.07533e-05
 Reference value :  1.07546e-05
 Reference value :  1.07560e-05
 Reference value :  1.07578e-05
 Reference value :  1.07706e-05
 Reference value :  1.09981e-05
 Reference value :  1.10000e-05
 Reference value :  1.10001e-05
 Reference value :  1.10003e-05
 Reference value :  1.10013e-05
 Reference value :  1.10022e-05
 Reference value :  1.10040e-05
 Reference value :  1.10053e-05
 Reference value :  1.10073e-05
 Reference value :  1.10093e-05
 Reference value :  1.10112e-05
 Reference value :  1.10136e-05
 Reference value :  1.10504e-05
 Reference value :  1.12501e-05
 Reference value :  1.12502e-05
 Reference value :  1.12502e-05
 Reference value :  1.12504e-05
 Reference value :  1.12515e-05
 Reference value :  1.12526e-05
 Reference value :  1.12541e-05
 Reference value :  1.12554e-05
 Reference value :  1.12570e-05
 Reference value :  1.12620e-05
 Reference value :  1.12998e-05
 Reference value :  1.14779e-05
 Reference value :  1.15000e-05
 Reference value :  1.15001e-05
 Reference value :  1.15002e-05
 Reference value :  1.15009e-05
 Reference value :  1.15018e-05
 Reference value :  1.15028e-05
 Reference value :  1.15040e-05
 Reference value :  1.15046e-05
 Reference value :  1.15058e-05
 Reference value :  1.15071e-05
 Reference value :  1.15106e-05
 Reference value :  1.15140e-05
 Reference value :  1.15167e-05
 Reference value :  1.15191e-05
 Reference value :  1.15216e-05
 Reference value :  1.15285e-05
 Reference value :  1.15575e-05
 Reference value :  1.16005e-05
 Reference value :  1.16353e-05
 Reference value :  1.16582e-05
 Reference value :  1.16967e-05
 Reference value :  1.17120e-05
 Reference value :  1.17447e-05
 Reference value :  1.17502e-05
 Reference value :  1.17504e-05
 Reference value :  1.17520e-05
 Reference value :  1.17546e-05
 Reference value :  1.17569e-05
 Reference value :  1.17706e-05
 Reference value :  1.18633e-05
 Reference value :  1.20000e-05
 Reference value :  1.20001e-05
 Reference value :  1.20002e-05
 Reference value :  1.20009e-05
 Reference value :  1.20018e-05
 Reference value :  1.20028e-05
 Reference value :  1.20046e-05
 Reference value :  1.20063e-05
 Reference value :  1.20083e-05
 Reference value :  1.20102e-05
 Reference value :  1.20124e-05
 Reference value :  1.20309e-05
 Reference value :  1.22501e-05
 Reference value :  1.22502e-05
 Reference value :  1.22503e-05
 Reference value :  1.22507e-05
 Reference value :  1.22520e-05
 Reference value :  1.22541e-05
 Reference value :  1.22547e-05
 Reference value :  1.22570e-05
 Reference value :  1.22715e-05
 Reference value :  1.25000e-05
 Reference value :  1.25001e-05
 Reference value :  1.25005e-05
 Reference value :  1.25022e-05
 Reference value :  1.25040e-05
 Reference value :  1.25052e-05
 Reference value :  1.25064e-05
 Reference value :  1.25106e-05
 Reference value :  1.25140e-05
 Reference value :  1.25180e-05
 Reference value :  1.25216e-05
 Reference value :  1.25384e-05
 Reference value :  1.25530e-05
 Reference value :  1.25616e-05
 Reference value :  1.25778e-05
 Reference value :  1.26080e-05
 Reference value :  1.27196e-05
 Reference value :  1.27502e-05
 Reference value :  1.27503e-05
 Reference value :  1.27511e-05
 Reference value :  1.27525e-05
 Reference value :  1.27546e-05
 Reference value :  1.27569e-05
 Reference value :  1.27710e-05
 Reference value :  1.30000e-05
 Reference value :  1.30001e-05
 Reference value :  1.30001e-05
 Reference value :  1.30003e-05
 Reference value :  1.30009e-05
 Reference value :  1.30013e-05
 Reference value :  1.30022e-05
 Reference value :  1.30041e-05
 Reference value :  1.30056e-05
 Reference value :  1.30075e-05
 Reference value :  1.30095e-05
 Reference value :  1.30116e-05
 Reference value :  1.30141e-05
 Reference value :  1.30420e-05
 Reference value :  1.32501e-05
 Reference value :  1.32502e-05
 Reference value :  1.32502e-05
 Reference value :  1.32507e-05
 Reference value :  1.32520e-05
 Reference value :  1.32533e-05
 Reference value :  1.32546e-05
 Reference value :  1.32560e-05
 Reference value :  1.32579e-05
 Reference value :  1.32599e-05
 Reference value :  1.32655e-05
 Reference value :  1.32839e-05
 Reference value :  1.33582e-05
 Reference value :  1.35000e-05
 Reference value :  1.35001e-05
 Reference value :  1.35001e-05
 Reference value :  1.35002e-05
 Reference value :  1.35005e-05
 Reference value :  1.35013e-05
 Reference value :  1.35022e-05
 Reference value :  1.35034e-05
 Reference value :  1.35046e-05
 Reference value :  1.35058e-05
 Reference value :  1.35064e-05
 Reference value :  1.35080e-05
 Reference value :  1.35105e-05
 Reference value :  1.35115e-05
 Reference value :  1.35138e-05
 Reference value :  1.35162e-05
 Reference value :  1.35185e-05
 Reference value :  1.35211e-05
 Reference value :  1.35276e-05
 Reference value :  1.35349e-05
 Reference value :  1.35419e-05
 Reference value :  1.35480e-05
 Reference value :  1.35585e-05
 Reference value :  1.35846e-05
 Reference value :  1.36819e-05
 Reference value :  1.37418e-05
 Reference value :  1.37501e-05
 Reference value :  1.37502e-05
 Reference value :  1.37503e-05
 Reference value :  1.37507e-05
 Reference value :  1.37515e-05
 Reference value :  1.37526e-05
 Reference value :  1.37540e-05
 Reference value :  1.37554e-05
 Reference value :  1.37570e-05
 Reference value :  1.37621e-05
 Reference value :  1.38005e-05
 Reference value :  1.38603e-05
 Reference value :  1.39548e-05
 Reference value :  1.40000e-05
 Reference value :  1.40001e-05
 Reference value :  1.40002e-05
 Reference value :  1.40009e-05
 Reference value :  1.40018e-05
 Reference value :  1.40027e-05
 Reference value :  1.40041e-05
 Reference value :  1.40056e-05
 Reference value :  1.40075e-05
 Reference value :  1.40095e-05
 Reference value :  1.40116e-05
 Reference value :  1.40141e-05
 Reference value :  1.40419e-05
 Reference value :  1.42501e-05
 Reference value :  1.42502e-05
 Reference value :  1.42502e-05
 Reference value :  1.42504e-05
 Reference value :  1.42515e-05
 Reference value :  1.42525e-05
 Reference value :  1.42540e-05
 Reference value :  1.42553e-05
 Reference value :  1.42569e-05
 Reference value :  1.42599e-05
 Reference value :  1.42654e-05
 Reference value :  1.42985e-05
 Reference value :  1.45000e-05
 Reference value :  1.45001e-05
 Reference value :  1.45001e-05
 Reference value :  1.45005e-05
 Reference value :  1.45013e-05
 Reference value :  1.45022e-05
 Reference value :  1.45034e-05
 Reference value :  1.45046e-05
 Reference value :  1.45058e-05
 Reference value :  1.45064e-05
 Reference value :  1.45080e-05
 Reference value :  1.45105e-05
 Reference value :  1.45115e-05
 Reference value :  1.45138e-05
 Reference value :  1.45162e-05
 Reference value :  1.45185e-05
 Reference value :  1.45212e-05
 Reference value :  1.45240e-05
 Reference value :  1.45286e-05
 Reference value :  1.45586e-05
 Reference value :  1.47501e-05
 Reference value :  1.47503e-05
 Reference value :  1.47511e-05
 Reference value :  1.47526e-05
 Reference value :  1.47547e-05
 Reference value :  1.47569e-05
 Reference value :  1.47652e-05
 Reference value :  1.48849e-05
 Reference value :  1.50000e-05
 Reference value :  1.50001e-05
 Reference value :  1.50003e-05
 Reference value :  1.50013e-05
 Reference value :  1.50022e-05
 Reference value :  1.50034e-05
 Reference value :  1.50046e-05
 Reference value :  1.50063e-05
 Reference value :  1.50083e-05
 Reference value :  1.50112e-05
 Reference value :  1.50309e-05
 Reference value :  1.52501e-05
 Reference value :  1.52502e-05
 Reference value :  1.52507e-05
 Reference value :  1.52520e-05
 Reference value :  1.52541e-05
 Reference value :  1.52561e-05
 Reference value :  1.52620e-05
 Reference value :  1.53847e-05
 Reference value :  1.55004e-05
 Reference value :  1.55016e-05
 Reference value :  1.55029e-05
 Reference value :  1.55047e-05
 Reference value :  1.55059e-05
 Reference value :  1.55091e-05
 Reference value :  1.55141e-05
 Reference value :  1.55166e-05
 Reference value :  1.55189e-05
 Reference value :  1.55214e-05
 Reference value :  1.55336e-05
 Reference value :  1.56045e-05
 Reference value :  1.57501e-05
 Reference value :  1.57502e-05
 Reference value :  1.57503e-05
 Reference value :  1.57510e-05
 Reference value :  1.57520e-05
 Reference value :  1.57532e-05
 Reference value :  1.57546e-05
 Reference value :  1.57568e-05
 Reference value :  1.57616e-05
 Reference value :  1.57979e-05
 Reference value :  1.60000e-05
 Reference value :  1.60001e-05
 Reference value :  1.60002e-05
 Reference value :  1.60009e-05
 Reference value :  1.60018e-05
 Reference value :  1.60028e-05
 Reference value :  1.60046e-05
 Reference value :  1.60073e-05
 Reference value :  1.60102e-05
 Reference value :  1.60162e-05
 Reference value :  1.61670e-05
 Reference value :  1.62502e-05
 Reference value :  1.62503e-05
 Reference value :  1.62511e-05
 Reference value :  1.62520e-05
 Reference value :  1.62541e-05
 Reference value :  1.62554e-05
 Reference value :  1.62569e-05
 Reference value :  1.62654e-05
 Reference value :  1.63302e-05
 Reference value :  1.65000e-05
 Reference value :  1.65001e-05
 Reference value :  1.65002e-05
 Reference value :  1.65009e-05
 Reference value :  1.65018e-05
 Reference value :  1.65028e-05
 Reference value :  1.65046e-05
 Reference value :  1.65058e-05
 Reference value :  1.65071e-05
 Reference value :  1.65100e-05
 Reference value :  1.65145e-05
 Reference value :  1.65505e-05
 Reference value :  1.67501e-05
 Reference value :  1.67502e-05
 Reference value :  1.67503e-05
 Reference value :  1.67511e-05
 Reference value :  1.67520e-05
 Reference value :  1.67533e-05
 Reference value :  1.67551e-05
 Reference value :  1.67572e-05
 Reference value :  1.67603e-05
 Reference value :  1.67721e-05
 Reference value :  1.68156e-05
 Reference value :  1.70000e-05
 Reference value :  1.70000e-05
 Reference value :  1.70000e-05
 Reference value :  1.70000e-05
 Reference value :  1.70000e-05
 Reference value :  1.70001e-05
 Reference value :  1.70002e-05
 Reference value :  1.70008e-05
 Reference value :  1.70019e-05
 Reference value :  1.70030e-05
 Reference value :  1.70044e-05
 Reference value :  1.70057e-05
 Reference value :  1.70071e-05
 Reference value :  1.70113e-05
 Reference value :  1.70288e-05
 Reference value :  1.70337e-05
 Reference value :  1.70374e-05
 Reference value :  1.70400e-05
 Reference value :  1.70445e-05
 Reference value :  1.70478e-05
 Reference value :  1.70507e-05
 Reference value :  1.70589e-05
 Reference value :  1.70711e-05
 Reference value :  1.71093e-05
 Reference value :  1.71771e-05
 Reference value :  1.72501e-05
 Reference value :  1.72502e-05
 Reference value :  1.72503e-05
 Reference value :  1.72504e-05
 Reference value :  1.72511e-05
 Reference value :  1.72520e-05
 Reference value :  1.72533e-05
 Reference value :  1.72547e-05
 Reference value :  1.72570e-05
 Reference value :  1.72654e-05
 Reference value :  1.73312e-05
 Reference value :  1.75000e-05
 Reference value :  1.75001e-05
 Reference value :  1.75001e-05
 Reference value :  1.75003e-05
 Reference value :  1.75009e-05
 Reference value :  1.75013e-05
 Reference value :  1.75022e-05
 Reference value :  1.75047e-05
 Reference value :  1.75091e-05
 Reference value :  1.75148e-05
 Reference value :  1.75200e-05
 Reference value :  1.75327e-05
 Reference value :  1.76563e-05
 Reference value :  1.77445e-05
 Reference value :  1.77501e-05
 Reference value :  1.77502e-05
 Reference value :  1.77511e-05
 Reference value :  1.77533e-05
 Reference value :  1.77546e-05
 Reference value :  1.77577e-05
 Reference value :  1.77607e-05
 Reference value :  1.77721e-05
 Reference value :  1.78250e-05
 Reference value :  1.80000e-05
 Reference value :  1.80002e-05
 Reference value :  1.80009e-05
 Reference value :  1.80026e-05
 Reference value :  1.80044e-05
 Reference value :  1.80065e-05
 Reference value :  1.80092e-05
 Reference value :  1.80116e-05
 Reference value :  1.80150e-05
 Reference value :  1.80183e-05
 Reference value :  1.80220e-05
 Reference value :  1.80305e-05
 Reference value :  1.80595e-05
 Reference value :  1.80890e-05
 Reference value :  1.81030e-05
 Reference value :  1.81112e-05
 Reference value :  1.81279e-05
 Reference value :  1.81451e-05
 Reference value :  1.81966e-05
 Reference value :  1.82501e-05
 Reference value :  1.82502e-05
 Reference value :  1.82503e-05
 Reference value :  1.82507e-05
 Reference value :  1.82520e-05
 Reference value :  1.82541e-05
 Reference value :  1.82554e-05
 Reference value :  1.82569e-05
 Reference value :  1.82651e-05
 Reference value :  1.83301e-05
 Reference value :  1.85000e-05
 Reference value :  1.85001e-05
 Reference value :  1.85003e-05
 Reference value :  1.85013e-05
 Reference value :  1.85022e-05
 Reference value :  1.85034e-05
 Reference value :  1.85046e-05
 Reference value :  1.85073e-05
 Reference value :  1.85093e-05
 Reference value :  1.85112e-05
 Reference value :  1.85162e-05
 Reference value :  1.85891e-05
 Reference value :  1.87501e-05
 Reference value :  1.87502e-05
 Reference value :  1.87507e-05
 Reference value :  1.87520e-05
 Reference value :  1.87541e-05
 Reference value :  1.87561e-05
 Reference value :  1.87620e-05
 Reference value :  1.88310e-05
 Reference value :  1.90000e-05
 Reference value :  1.90002e-05
 Reference value :  1.90009e-05
 Reference value :  1.90022e-05
 Reference value :  1.90046e-05
 Reference value :  1.90064e-05
 Reference value :  1.90090e-05
 Reference value :  1.90140e-05
 Reference value :  1.90167e-05
 Reference value :  1.90203e-05
 Reference value :  1.90423e-05
 Reference value :  1.92501e-05
 Reference value :  1.92502e-05
 Reference value :  1.92507e-05
 Reference value :  1.92515e-05
 Reference value :  1.92533e-05
 Reference value :  1.92553e-05
 Reference value :  1.92578e-05
 Reference value :  1.92984e-05
 Reference value :  1.95000e-05
 Reference value :  1.95001e-05
 Reference value :  1.95003e-05
 Reference value :  1.95012e-05
 Reference value :  1.95022e-05
 Reference value :  1.95039e-05
 Reference value :  1.95053e-05
 Reference value :  1.95075e-05
 Reference value :  1.95097e-05
 Reference value :  1.95134e-05
 Reference value :  1.95280e-05
 Reference value :  1.96648e-05
 Reference value :  1.97502e-05
 Reference value :  1.97503e-05
 Reference value :  1.97507e-05
 Reference value :  1.97520e-05
 Reference value :  1.97540e-05
 Reference value :  1.97553e-05
 Reference value :  1.97578e-05
 Reference value :  1.97819e-05
 Reference value :  2.00000e-05
 Reference value :  2.00001e-05
 Reference value :  2.00002e-05
 Reference value :  2.00005e-05
 Reference value :  2.00013e-05
 Reference value :  2.00022e-05
 Reference value :  2.00034e-05
 Reference value :  2.00046e-05
 Reference value :  2.00058e-05
 Reference value :  2.00064e-05
 Reference value :  2.00090e-05
 Reference value :  2.00126e-05
 Reference value :  2.00140e-05
 Reference value :  2.00154e-05
 Reference value :  2.00180e-05
 Reference value :  2.00191e-05
 Reference value :  2.00216e-05
 Reference value :  2.00285e-05
 Reference value :  2.00575e-05
 Reference value :  2.01014e-05
 Reference value :  2.01382e-05
 Reference value :  2.01624e-05
 Reference value :  2.01903e-05
 Reference value :  2.02010e-05
 Reference value :  2.02180e-05
 Reference value :  2.02501e-05
 Reference value :  2.02501e-05
 Reference value :  2.02502e-05
 Reference value :  2.02503e-05
 Reference value :  2.02507e-05
 Reference value :  2.02515e-05
 Reference value :  2.02520e-05
 Reference value :  2.02533e-05
 Reference value :  2.02546e-05
 Reference value :  2.02560e-05
 Reference value :  2.02578e-05
 Reference value :  2.02650e-05
 Reference value :  2.02983e-05
 Reference value :  2.04979e-05
 Reference value :  2.05000e-05
 Reference value :  2.05001e-05
 Reference value :  2.05003e-05
 Reference value :  2.05013e-05
 Reference value :  2.05022e-05
 Reference value :  2.05039e-05
 Reference value :  2.05053e-05
 Reference value :  2.05085e-05
 Reference value :  2.05107e-05
 Reference value :  2.05147e-05
 Reference value :  2.05590e-05
 Reference value :  2.07501e-05
 Reference value :  2.07503e-05
 Reference value :  2.07511e-05
 Reference value :  2.07520e-05
 Reference value :  2.07533e-05
 Reference value :  2.07546e-05
 Reference value :  2.07578e-05
 Reference value :  2.07711e-05
 Reference value :  2.09990e-05
 Reference value :  2.10001e-05
 Reference value :  2.10002e-05
 Reference value :  2.10013e-05
 Reference value :  2.10028e-05
 Reference value :  2.10046e-05
 Reference value :  2.10058e-05
 Reference value :  2.10080e-05
 Reference value :  2.10126e-05
 Reference value :  2.10140e-05
 Reference value :  2.10154e-05
 Reference value :  2.10180e-05
 Reference value :  2.10203e-05
 Reference value :  2.10253e-05
 Reference value :  2.10380e-05
 Reference value :  2.10489e-05
 Reference value :  2.10568e-05
 Reference value :  2.10659e-05
 Reference value :  2.10767e-05
 Reference value :  2.11059e-05
 Reference value :  2.12501e-05
 Reference value :  2.12502e-05
 Reference value :  2.12502e-05
 Reference value :  2.12504e-05
 Reference value :  2.12511e-05
 Reference value :  2.12520e-05
 Reference value :  2.12533e-05
 Reference value :  2.12546e-05
 Reference value :  2.12560e-05
 Reference value :  2.12569e-05
 Reference value :  2.12596e-05
 Reference value :  2.12710e-05
 Reference value :  2.13310e-05
 Reference value :  2.15000e-05
 Reference value :  2.15001e-05
 Reference value :  2.15001e-05
 Reference value :  2.15003e-05
 Reference value :  2.15013e-05
 Reference value :  2.15022e-05
 Reference value :  2.15041e-05
 Reference value :  2.15056e-05
 Reference value :  2.15075e-05
 Reference value :  2.15095e-05
 Reference value :  2.15116e-05
 Reference value :  2.15141e-05
 Reference value :  2.15283e-05
 Reference value :  2.16148e-05
 Reference value :  2.17501e-05
 Reference value :  2.17502e-05
 Reference value :  2.17503e-05
 Reference value :  2.17507e-05
 Reference value :  2.17520e-05
 Reference value :  2.17540e-05
 Reference value :  2.17553e-05
 Reference value :  2.17569e-05
 Reference value :  2.17599e-05
 Reference value :  2.17655e-05
 Reference value :  2.17987e-05
 Reference value :  2.20000e-05
 Reference value :  2.20014e-05
 Reference value :  2.20056e-05
 Reference value :  2.20081e-05
 Reference value :  2.20116e-05
 Reference value :  2.20137e-05
 Reference value :  2.20157e-05
 Reference value :  2.20174e-05
 Reference value :  2.20205e-05
 Reference value :  2.20284e-05
 Reference value :  2.20370e-05
 Reference value :  2.20445e-05
 Reference value :  2.20531e-05
 Reference value :  2.20825e-05
 Reference value :  2.22501e-05
 Reference value :  2.22502e-05
 Reference value :  2.22503e-05
 Reference value :  2.22511e-05
 Reference value :  2.22525e-05
 Reference value :  2.22546e-05
 Reference value :  2.22568e-05
 Reference value :  2.22811e-05
 Reference value :  2.23632e-05
 Reference value :  2.24082e-05
 Reference value :  2.25000e-05
 Reference value :  2.25001e-05
 Reference value :  2.25002e-05
 Reference value :  2.25013e-05
 Reference value :  2.25022e-05
 Reference value :  2.25041e-05
 Reference value :  2.25068e-05
 Reference value :  2.25075e-05
 Reference value :  2.25095e-05
 Reference value :  2.25128e-05
 Reference value :  2.25283e-05
 Reference value :  2.26155e-05
 Reference value :  2.27501e-05
 Reference value :  2.27502e-05
 Reference value :  2.27502e-05
 Reference value :  2.27504e-05
 Reference value :  2.27511e-05
 Reference value :  2.27520e-05
 Reference value :  2.27533e-05
 Reference value :  2.27546e-05
 Reference value :  2.27570e-05
 Reference value :  2.27588e-05
 Reference value :  2.27632e-05
 Reference value :  2.27752e-05
 Reference value :  2.28219e-05
 Reference value :  2.30000e-05
 Reference value :  2.30013e-05
 Reference value :  2.30053e-05
 Reference value :  2.30075e-05
 Reference value :  2.30112e-05
 Reference value :  2.30140e-05
 Reference value :  2.30162e-05
 Reference value :  2.30184e-05
 Reference value :  2.30209e-05
 Reference value :  2.30219e-05
 Reference value :  2.30257e-05
 Reference value :  2.30356e-05
 Reference value :  2.30668e-05
 Reference value :  2.31917e-05
 Reference value :  2.32501e-05
 Reference value :  2.32502e-05
 Reference value :  2.32503e-05
 Reference value :  2.32511e-05
 Reference value :  2.32520e-05
 Reference value :  2.32540e-05
 Reference value :  2.32553e-05
 Reference value :  2.32569e-05
 Reference value :  2.32617e-05
 Reference value :  2.32986e-05
 Reference value :  2.35000e-05
 Reference value :  2.35001e-05
 Reference value :  2.35002e-05
 Reference value :  2.35005e-05
 Reference value :  2.35013e-05
 Reference value :  2.35022e-05
 Reference value :  2.35040e-05
 Reference value :  2.35053e-05
 Reference value :  2.35085e-05
 Reference value :  2.35106e-05
 Reference value :  2.35130e-05
 Reference value :  2.35283e-05
 Reference value :  2.36047e-05
 Reference value :  2.37501e-05
 Reference value :  2.37502e-05
 Reference value :  2.37503e-05
 Reference value :  2.37511e-05
 Reference value :  2.37525e-05
 Reference value :  2.37540e-05
 Reference value :  2.37553e-05
 Reference value :  2.37579e-05
 Reference value :  2.37654e-05
 Reference value :  2.37996e-05
 Reference value :  2.39954e-05
 Reference value :  2.40000e-05
 Reference value :  2.40001e-05
 Reference value :  2.40003e-05
 Reference value :  2.40013e-05
 Reference value :  2.40022e-05
 Reference value :  2.40040e-05
 Reference value :  2.40046e-05
 Reference value :  2.40058e-05
 Reference value :  2.40071e-05
 Reference value :  2.40106e-05
 Reference value :  2.40140e-05
 Reference value :  2.40167e-05
 Reference value :  2.40191e-05
 Reference value :  2.40216e-05
 Reference value :  2.40253e-05
 Reference value :  2.40407e-05
 Reference value :  2.41099e-05
 Reference value :  2.42501e-05
 Reference value :  2.42502e-05
 Reference value :  2.42503e-05
 Reference value :  2.42507e-05
 Reference value :  2.42515e-05
 Reference value :  2.42525e-05
 Reference value :  2.42540e-05
 Reference value :  2.42553e-05
 Reference value :  2.42569e-05
 Reference value :  2.42595e-05
 Reference value :  2.42706e-05
 Reference value :  2.43304e-05
 Reference value :  2.45000e-05
 Reference value :  2.45001e-05
 Reference value :  2.45002e-05
 Reference value :  2.45009e-05
 Reference value :  2.45013e-05
 Reference value :  2.45022e-05
 Reference value :  2.45034e-05
 Reference value :  2.45046e-05
 Reference value :  2.45063e-05
 Reference value :  2.45083e-05
 Reference value :  2.45102e-05
 Reference value :  2.45124e-05
 Reference value :  2.45212e-05
 Reference value :  2.45893e-05
 Reference value :  2.47501e-05
 Reference value :  2.47501e-05
 Reference value :  2.47502e-05
 Reference value :  2.47503e-05
 Reference value :  2.47504e-05
 Reference value :  2.47511e-05
 Reference value :  2.47520e-05
 Reference value :  2.47541e-05
 Reference value :  2.47547e-05
 Reference value :  2.47561e-05
 Reference value :  2.47579e-05
 Reference value :  2.47655e-05
 Reference value :  2.47997e-05
 Reference value :  2.50000e-05
 Reference value :  2.50001e-05
 Reference value :  2.50002e-05
 Reference value :  2.50005e-05
 Reference value :  2.50013e-05
 Reference value :  2.50022e-05
 Reference value :  2.50040e-05
 Reference value :  2.50046e-05
 Reference value :  2.50058e-05
 Reference value :  2.50064e-05
 Reference value :  2.50090e-05
 Reference value :  2.50125e-05
 Reference value :  2.50331e-05
 Reference value :  2.52501e-05
 Reference value :  2.52502e-05
 Reference value :  2.52503e-05
 Reference value :  2.52507e-05
 Reference value :  2.52520e-05
 Reference value :  2.52533e-05
 Reference value :  2.52551e-05
 Reference value :  2.52585e-05
 Reference value :  2.52662e-05
 Reference value :  2.53156e-05
 Reference value :  2.55000e-05
 Reference value :  2.55000e-05
 Reference value :  2.55000e-05
 Reference value :  2.55000e-05
 Reference value :  2.55001e-05
 Reference value :  2.55004e-05
 Reference value :  2.55024e-05
 Reference value :  2.55044e-05
 Reference value :  2.55063e-05
 Reference value :  2.55094e-05
 Reference value :  2.55288e-05
 Reference value :  2.55337e-05
 Reference value :  2.55401e-05
 Reference value :  2.55462e-05
 Reference value :  2.55559e-05
 Reference value :  2.55951e-05
 Reference value :  2.56842e-05
 Reference value :  2.57502e-05
 Reference value :  2.57504e-05
 Reference value :  2.57515e-05
 Reference value :  2.57525e-05
 Reference value :  2.57546e-05
 Reference value :  2.57569e-05
 Reference value :  2.57651e-05
 Reference value :  2.58310e-05
 Reference value :  2.60000e-05
 Reference value :  2.60000e-05
 Reference value :  2.60001e-05
 Reference value :  2.60002e-05
 Reference value :  2.60009e-05
 Reference value :  2.60018e-05
 Reference value :  2.60028e-05
 Reference value :  2.60040e-05
 Reference value :  2.60054e-05
 Reference value :  2.60091e-05
 Reference value :  2.60119e-05
 Reference value :  2.60148e-05
 Reference value :  2.60178e-05
 Reference value :  2.60261e-05
 Reference value :  2.61563e-05
 Reference value :  2.62445e-05
 Reference value :  2.62501e-05
 Reference value :  2.62502e-05
 Reference value :  2.62504e-05
 Reference value :  2.62515e-05
 Reference value :  2.62533e-05
 Reference value :  2.62546e-05
 Reference value :  2.62569e-05
 Reference value :  2.62586e-05
 Reference value :  2.62607e-05
 Reference value :  2.62677e-05
 Reference value :  2.63028e-05
 Reference value :  2.64075e-05
 Reference value :  2.65002e-05
 Reference value :  2.65009e-05
 Reference value :  2.65020e-05
 Reference value :  2.65038e-05
 Reference value :  2.65051e-05
 Reference value :  2.65065e-05
 Reference value :  2.65093e-05
 Reference value :  2.65118e-05
 Reference value :  2.65142e-05
 Reference value :  2.65160e-05
 Reference value :  2.65183e-05
 Reference value :  2.65208e-05
 Reference value :  2.65265e-05
 Reference value :  2.65604e-05
 Reference value :  2.65902e-05
 Reference value :  2.66024e-05
 Reference value :  2.66077e-05
 Reference value :  2.66184e-05
 Reference value :  2.66309e-05
 Reference value :  2.66873e-05
 Reference value :  2.67501e-05
 Reference value :  2.67502e-05
 Reference value :  2.67503e-05
 Reference value :  2.67511e-05
 Reference value :  2.67520e-05
 Reference value :  2.67541e-05
 Reference value :  2.67554e-05
 Reference value :  2.67569e-05
 Reference value :  2.67617e-05
 Reference value :  2.67813e-05
 Reference value :  2.68845e-05
 Reference value :  2.70000e-05
 Reference value :  2.70001e-05
 Reference value :  2.70001e-05
 Reference value :  2.70005e-05
 Reference value :  2.70018e-05
 Reference value :  2.70034e-05
 Reference value :  2.70046e-05
 Reference value :  2.70063e-05
 Reference value :  2.70083e-05
 Reference value :  2.70102e-05
 Reference value :  2.70124e-05
 Reference value :  2.70309e-05
 Reference value :  2.71663e-05
 Reference value :  2.72501e-05
 Reference value :  2.72502e-05
 Reference value :  2.72503e-05
 Reference value :  2.72511e-05
 Reference value :  2.72520e-05
 Reference value :  2.72541e-05
 Reference value :  2.72547e-05
 Reference value :  2.72561e-05
 Reference value :  2.72579e-05
 Reference value :  2.72654e-05
 Reference value :  2.73302e-05
 Reference value :  2.75000e-05
 Reference value :  2.75001e-05
 Reference value :  2.75001e-05
 Reference value :  2.75003e-05
 Reference value :  2.75013e-05
 Reference value :  2.75022e-05
 Reference value :  2.75034e-05
 Reference value :  2.75046e-05
 Reference value :  2.75058e-05
 Reference value :  2.75064e-05
 Reference value :  2.75090e-05
 Reference value :  2.75126e-05
 Reference value :  2.75140e-05
 Reference value :  2.75154e-05
 Reference value :  2.75180e-05
 Reference value :  2.75203e-05
 Reference value :  2.75253e-05
 Reference value :  2.75575e-05
 Reference value :  2.76129e-05
 Reference value :  2.77501e-05
 Reference value :  2.77502e-05
 Reference value :  2.77503e-05
 Reference value :  2.77511e-05
 Reference value :  2.77520e-05
 Reference value :  2.77533e-05
 Reference value :  2.77546e-05
 Reference value :  2.77560e-05
 Reference value :  2.77578e-05
 Reference value :  2.77650e-05
 Reference value :  2.77984e-05
 Reference value :  2.80000e-05
 Reference value :  2.80000e-05
 Reference value :  2.80001e-05
 Reference value :  2.80003e-05
 Reference value :  2.80012e-05
 Reference value :  2.80022e-05
 Reference value :  2.80039e-05
 Reference value :  2.80064e-05
 Reference value :  2.80085e-05
 Reference value :  2.80108e-05
 Reference value :  2.80150e-05
 Reference value :  2.80563e-05
 Reference value :  2.82501e-05
 Reference value :  2.82501e-05
 Reference value :  2.82502e-05
 Reference value :  2.82503e-05
 Reference value :  2.82507e-05
 Reference value :  2.82515e-05
 Reference value :  2.82520e-05
 Reference value :  2.82533e-05
 Reference value :  2.82546e-05
 Reference value :  2.82569e-05
 Reference value :  2.82653e-05
 Reference value :  2.82995e-05
 Reference value :  2.85000e-05
 Reference value :  2.85001e-05
 Reference value :  2.85002e-05
 Reference value :  2.85009e-05
 Reference value :  2.85022e-05
 Reference value :  2.85046e-05
 Reference value :  2.85058e-05
 Reference value :  2.85080e-05
 Reference value :  2.85126e-05
 Reference value :  2.85154e-05
 Reference value :  2.85191e-05
 Reference value :  2.85253e-05
 Reference value :  2.85781e-05
 Reference value :  2.86001e-05
 Reference value :  2.86363e-05
 Reference value :  2.86692e-05
 Reference value :  2.86919e-05
 Reference value :  2.87335e-05
 Reference value :  2.87502e-05
 Reference value :  2.87507e-05
 Reference value :  2.87520e-05
 Reference value :  2.87540e-05
 Reference value :  2.87560e-05
 Reference value :  2.87617e-05
 Reference value :  2.88863e-05
 Reference value :  2.90000e-05
 Reference value :  2.90002e-05
 Reference value :  2.90012e-05
 Reference value :  2.90027e-05
 Reference value :  2.90053e-05
 Reference value :  2.90085e-05
 Reference value :  2.90120e-05
 Reference value :  2.90214e-05
 Reference value :  2.90916e-05
 Reference value :  2.92501e-05
 Reference value :  2.92502e-05
 Reference value :  2.92504e-05
 Reference value :  2.92515e-05
 Reference value :  2.92525e-05
 Reference value :  2.92540e-05
 Reference value :  2.92546e-05
 Reference value :  2.92560e-05
 Reference value :  2.92596e-05
 Reference value :  2.92819e-05
 Reference value :  2.94991e-05
 Reference value :  2.95000e-05
 Reference value :  2.95001e-05
 Reference value :  2.95005e-05
 Reference value :  2.95013e-05
 Reference value :  2.95022e-05
 Reference value :  2.95040e-05
 Reference value :  2.95046e-05
 Reference value :  2.95058e-05
 Reference value :  2.95071e-05
 Reference value :  2.95106e-05
 Reference value :  2.95140e-05
 Reference value :  2.95167e-05
 Reference value :  2.95190e-05
 Reference value :  2.95215e-05
 Reference value :  2.95282e-05
 Reference value :  2.95433e-05
 Reference value :  2.95529e-05
 Reference value :  2.95619e-05
 Reference value :  2.95721e-05
 Reference value :  2.96265e-05
 Reference value :  2.97501e-05
 Reference value :  2.97502e-05
 Reference value :  2.97503e-05
 Reference value :  2.97511e-05
 Reference value :  2.97520e-05
 Reference value :  2.97540e-05
 Reference value :  2.97553e-05
 Reference value :  2.97569e-05
 Reference value :  2.97652e-05
 Reference value :  2.98309e-05
 Reference value :  3.00000e-05
 Reference value :  3.00001e-05
 Reference value :  3.00001e-05
 Reference value :  3.00003e-05
 Reference value :  3.00009e-05
 Reference value :  3.00013e-05
 Reference value :  3.00022e-05
 Reference value :  3.00033e-05
 Reference value :  3.00049e-05
 Reference value :  3.00067e-05
 Reference value :  3.00075e-05
 Reference value :  3.00095e-05
 Reference value :  3.00116e-05
 Reference value :  3.00141e-05
 Reference value :  3.00283e-05
 Reference value :  3.01148e-05
 Reference value :  3.02501e-05
 Reference value :  3.02502e-05
 Reference value :  3.02503e-05
 Reference value :  3.02511e-05
 Reference value :  3.02520e-05
 Reference value :  3.02540e-05
 Reference value :  3.02553e-05
 Reference value :  3.02569e-05
 Reference value :  3.02588e-05
 Reference value :  3.02632e-05
 Reference value :  3.02839e-05
 Reference value :  3.04174e-05
 Reference value :  3.05014e-05
 Reference value :  3.05057e-05
 Reference value :  3.05082e-05
 Reference value :  3.05116e-05
 Reference value :  3.05138e-05
 Reference value :  3.05157e-05
 Reference value :  3.05175e-05
 Reference value :  3.05195e-05
 Reference value :  3.05218e-05
 Reference value :  3.05254e-05
 Reference value :  3.05362e-05
 Reference value :  3.05401e-05
 Reference value :  3.05457e-05
 Reference value :  3.05551e-05
 Reference value :  3.06100e-05
 Reference value :  3.07501e-05
 Reference value :  3.07502e-05
 Reference value :  3.07504e-05
 Reference value :  3.07515e-05
 Reference value :  3.07525e-05
 Reference value :  3.07540e-05
 Reference value :  3.07553e-05
 Reference value :  3.07568e-05
 Reference value :  3.07595e-05
 Reference value :  3.07704e-05
 Reference value :  3.08305e-05
 Reference value :  3.10000e-05
 Reference value :  3.10000e-05
 Reference value :  3.10001e-05
 Reference value :  3.10002e-05
 Reference value :  3.10003e-05
 Reference value :  3.10009e-05
 Reference value :  3.10013e-05
 Reference value :  3.10022e-05
 Reference value :  3.10040e-05
 Reference value :  3.10053e-05
 Reference value :  3.10074e-05
 Reference value :  3.10095e-05
 Reference value :  3.10117e-05
 Reference value :  3.10144e-05
 Reference value :  3.10409e-05
 Reference value :  3.12501e-05
 Reference value :  3.12502e-05
 Reference value :  3.12502e-05
 Reference value :  3.12504e-05
 Reference value :  3.12515e-05
 Reference value :  3.12525e-05
 Reference value :  3.12546e-05
 Reference value :  3.12570e-05
 Reference value :  3.12618e-05
 Reference value :  3.12899e-05
 Reference value :  3.15000e-05
 Reference value :  3.15001e-05
 Reference value :  3.15001e-05
 Reference value :  3.15005e-05
 Reference value :  3.15013e-05
 Reference value :  3.15022e-05
 Reference value :  3.15040e-05
 Reference value :  3.15046e-05
 Reference value :  3.15058e-05
 Reference value :  3.15071e-05
 Reference value :  3.15107e-05
 Reference value :  3.15140e-05
 Reference value :  3.15154e-05
 Reference value :  3.15180e-05
 Reference value :  3.15191e-05
 Reference value :  3.15216e-05
 Reference value :  3.15282e-05
 Reference value :  3.15388e-05
 Reference value :  3.15488e-05
 Reference value :  3.15728e-05
 Reference value :  3.17501e-05
 Reference value :  3.17502e-05
 Reference value :  3.17503e-05
 Reference value :  3.17511e-05
 Reference value :  3.17520e-05
 Reference value :  3.17540e-05
 Reference value :  3.17553e-05
 Reference value :  3.17569e-05
 Reference value :  3.17652e-05
 Reference value :  3.18310e-05
 Reference value :  3.20000e-05
 Reference value :  3.20001e-05
 Reference value :  3.20002e-05
 Reference value :  3.20009e-05
 Reference value :  3.20013e-05
 Reference value :  3.20022e-05
 Reference value :  3.20033e-05
 Reference value :  3.20049e-05
 Reference value :  3.20067e-05
 Reference value :  3.20075e-05
 Reference value :  3.20095e-05
 Reference value :  3.20116e-05
 Reference value :  3.20128e-05
 Reference value :  3.20207e-05
 Reference value :  3.20662e-05
 Reference value :  3.22501e-05
 Reference value :  3.22502e-05
 Reference value :  3.22502e-05
 Reference value :  3.22504e-05
 Reference value :  3.22511e-05
 Reference value :  3.22520e-05
 Reference value :  3.22540e-05
 Reference value :  3.22553e-05
 Reference value :  3.22569e-05
 Reference value :  3.22588e-05
 Reference value :  3.22632e-05
 Reference value :  3.22751e-05
 Reference value :  3.23214e-05
 Reference value :  3.25000e-05
 Reference value :  3.25001e-05
 Reference value :  3.25001e-05
 Reference value :  3.25003e-05
 Reference value :  3.25013e-05
 Reference value :  3.25022e-05
 Reference value :  3.25040e-05
 Reference value :  3.25052e-05
 Reference value :  3.25064e-05
 Reference value :  3.25090e-05
 Reference value :  3.25115e-05
 Reference value :  3.25138e-05
 Reference value :  3.25162e-05
 Reference value :  3.25184e-05
 Reference value :  3.25211e-05
 Reference value :  3.25248e-05
 Reference value :  3.25388e-05
 Reference value :  3.26018e-05
 Reference value :  3.27501e-05
 Reference value :  3.27502e-05
 Reference value :  3.27503e-05
 Reference value :  3.27507e-05
 Reference value :  3.27515e-05
 Reference value :  3.27525e-05
 Reference value :  3.27540e-05
 Reference value :  3.27553e-05
 Reference value :  3.27568e-05
 Reference value :  3.27616e-05
 Reference value :  3.27809e-05
 Reference value :  3.30000e-05
 Reference value :  3.30000e-05
 Reference value :  3.30001e-05
 Reference value :  3.30003e-05
 Reference value :  3.30012e-05
 Reference value :  3.30020e-05
 Reference value :  3.30036e-05
 Reference value :  3.30050e-05
 Reference value :  3.30069e-05
 Reference value :  3.30076e-05
 Reference value :  3.30095e-05
 Reference value :  3.30129e-05
 Reference value :  3.30270e-05
 Reference value :  3.31692e-05
 Reference value :  3.32502e-05
 Reference value :  3.32503e-05
 Reference value :  3.32515e-05
 Reference value :  3.32533e-05
 Reference value :  3.32547e-05
 Reference value :  3.32570e-05
 Reference value :  3.32600e-05
 Reference value :  3.32692e-05
 Reference value :  3.34171e-05
 Reference value :  3.35013e-05
 Reference value :  3.35054e-05
 Reference value :  3.35077e-05
 Reference value :  3.35108e-05
 Reference value :  3.35140e-05
 Reference value :  3.35237e-05
 Reference value :  3.35643e-05
 Reference value :  3.37501e-05
 Reference value :  3.37502e-05
 Reference value :  3.37504e-05
 Reference value :  3.37515e-05
 Reference value :  3.37533e-05
 Reference value :  3.37558e-05
 Reference value :  3.37622e-05
 Reference value :  3.38113e-05
 Reference value :  3.40000e-05
 Reference value :  3.40000e-05
 Reference value :  3.40000e-05
 Reference value :  3.40001e-05
 Reference value :  3.40004e-05
 Reference value :  3.40025e-05
 Reference value :  3.40044e-05
 Reference value :  3.40063e-05
 Reference value :  3.40221e-05
 Reference value :  3.40293e-05
 Reference value :  3.40372e-05
 Reference value :  3.40447e-05
 Reference value :  3.40483e-05
 Reference value :  3.40508e-05
 Reference value :  3.40590e-05
 Reference value :  3.40865e-05
 Reference value :  3.41374e-05
 Reference value :  3.42487e-05
 Reference value :  3.42501e-05
 Reference value :  3.42502e-05
 Reference value :  3.42503e-05
 Reference value :  3.42511e-05
 Reference value :  3.42520e-05
 Reference value :  3.42540e-05
 Reference value :  3.42553e-05
 Reference value :  3.42568e-05
 Reference value :  3.42616e-05
 Reference value :  3.42979e-05
 Reference value :  3.44937e-05
 Reference value :  3.45000e-05
 Reference value :  3.45001e-05
 Reference value :  3.45002e-05
 Reference value :  3.45009e-05
 Reference value :  3.45018e-05
 Reference value :  3.45028e-05
 Reference value :  3.45040e-05
 Reference value :  3.45054e-05
 Reference value :  3.45093e-05
 Reference value :  3.45121e-05
 Reference value :  3.45150e-05
 Reference value :  3.45183e-05
 Reference value :  3.45273e-05
 Reference value :  3.45987e-05
 Reference value :  3.46921e-05
 Reference value :  3.47365e-05
 Reference value :  3.47501e-05
 Reference value :  3.47502e-05
 Reference value :  3.47502e-05
 Reference value :  3.47504e-05
 Reference value :  3.47511e-05
 Reference value :  3.47520e-05
 Reference value :  3.47533e-05
 Reference value :  3.47546e-05
 Reference value :  3.47560e-05
 Reference value :  3.47575e-05
 Reference value :  3.47594e-05
 Reference value :  3.47619e-05
 Reference value :  3.47770e-05
 Reference value :  3.50000e-05
 Reference value :  3.50001e-05
 Reference value :  3.50003e-05
 Reference value :  3.50013e-05
 Reference value :  3.50022e-05
 Reference value :  3.50034e-05
 Reference value :  3.50046e-05
 Reference value :  3.50058e-05
 Reference value :  3.50071e-05
 Reference value :  3.50105e-05
 Reference value :  3.50114e-05
 Reference value :  3.50138e-05
 Reference value :  3.50173e-05
 Reference value :  3.50197e-05
 Reference value :  3.50246e-05
 Reference value :  3.50446e-05
 Reference value :  3.50875e-05
 Reference value :  3.51097e-05
 Reference value :  3.51335e-05
 Reference value :  3.52364e-05
 Reference value :  3.52502e-05
 Reference value :  3.52503e-05
 Reference value :  3.52511e-05
 Reference value :  3.52526e-05
 Reference value :  3.52547e-05
 Reference value :  3.52569e-05
 Reference value :  3.52651e-05
 Reference value :  3.53301e-05
 Reference value :  3.55000e-05
 Reference value :  3.55001e-05
 Reference value :  3.55002e-05
 Reference value :  3.55009e-05
 Reference value :  3.55018e-05
 Reference value :  3.55028e-05
 Reference value :  3.55046e-05
 Reference value :  3.55063e-05
 Reference value :  3.55083e-05
 Reference value :  3.55102e-05
 Reference value :  3.55124e-05
 Reference value :  3.55309e-05
 Reference value :  3.57501e-05
 Reference value :  3.57502e-05
 Reference value :  3.57503e-05
 Reference value :  3.57511e-05
 Reference value :  3.57520e-05
 Reference value :  3.57541e-05
 Reference value :  3.57554e-05
 Reference value :  3.57579e-05
 Reference value :  3.57715e-05
 Reference value :  3.58310e-05
 Reference value :  3.60004e-05
 Reference value :  3.60015e-05
 Reference value :  3.60024e-05
 Reference value :  3.60035e-05
 Reference value :  3.60047e-05
 Reference value :  3.60059e-05
 Reference value :  3.60080e-05
 Reference value :  3.60126e-05
 Reference value :  3.60153e-05
 Reference value :  3.60189e-05
 Reference value :  3.60228e-05
 Reference value :  3.60560e-05
 Reference value :  3.62501e-05
 Reference value :  3.62502e-05
 Reference value :  3.62503e-05
 Reference value :  3.62511e-05
 Reference value :  3.62526e-05
 Reference value :  3.62547e-05
 Reference value :  3.62569e-05
 Reference value :  3.62618e-05
 Reference value :  3.62988e-05
 Reference value :  3.65000e-05
 Reference value :  3.65001e-05
 Reference value :  3.65002e-05
 Reference value :  3.65009e-05
 Reference value :  3.65018e-05
 Reference value :  3.65034e-05
 Reference value :  3.65046e-05
 Reference value :  3.65073e-05
 Reference value :  3.65093e-05
 Reference value :  3.65124e-05
 Reference value :  3.65504e-05
 Reference value :  3.67501e-05
 Reference value :  3.67502e-05
 Reference value :  3.67503e-05
 Reference value :  3.67511e-05
 Reference value :  3.67520e-05
 Reference value :  3.67541e-05
 Reference value :  3.67554e-05
 Reference value :  3.67570e-05
 Reference value :  3.67619e-05
 Reference value :  3.67991e-05
 Reference value :  3.70000e-05
 Reference value :  3.70001e-05
 Reference value :  3.70002e-05
 Reference value :  3.70009e-05
 Reference value :  3.70018e-05
 Reference value :  3.70028e-05
 Reference value :  3.70046e-05
 Reference value :  3.70058e-05
 Reference value :  3.70071e-05
 Reference value :  3.70106e-05
 Reference value :  3.70140e-05
 Reference value :  3.70166e-05
 Reference value :  3.70190e-05
 Reference value :  3.70230e-05
 Reference value :  3.70332e-05
 Reference value :  3.70722e-05
 Reference value :  3.70988e-05
 Reference value :  3.71204e-05
 Reference value :  3.71551e-05
 Reference value :  3.71760e-05
 Reference value :  3.71923e-05
 Reference value :  3.72363e-05
 Reference value :  3.72502e-05
 Reference value :  3.72503e-05
 Reference value :  3.72511e-05
 Reference value :  3.72520e-05
 Reference value :  3.72533e-05
 Reference value :  3.72547e-05
 Reference value :  3.72560e-05
 Reference value :  3.72569e-05
 Reference value :  3.72618e-05
 Reference value :  3.72816e-05
 Reference value :  3.73850e-05
 Reference value :  3.75000e-05
 Reference value :  3.75001e-05
 Reference value :  3.75002e-05
 Reference value :  3.75013e-05
 Reference value :  3.75022e-05
 Reference value :  3.75040e-05
 Reference value :  3.75053e-05
 Reference value :  3.75073e-05
 Reference value :  3.75092e-05
 Reference value :  3.75112e-05
 Reference value :  3.75162e-05
 Reference value :  3.75893e-05
 Reference value :  3.77501e-05
 Reference value :  3.77502e-05
 Reference value :  3.77503e-05
 Reference value :  3.77511e-05
 Reference value :  3.77520e-05
 Reference value :  3.77541e-05
 Reference value :  3.77554e-05
 Reference value :  3.77579e-05
 Reference value :  3.77655e-05
 Reference value :  3.77997e-05
 Reference value :  3.79777e-05
 Reference value :  3.80000e-05
 Reference value :  3.80001e-05
 Reference value :  3.80002e-05
 Reference value :  3.80005e-05
 Reference value :  3.80013e-05
 Reference value :  3.80022e-05
 Reference value :  3.80034e-05
 Reference value :  3.80046e-05
 Reference value :  3.80058e-05
 Reference value :  3.80064e-05
 Reference value :  3.80080e-05
 Reference value :  3.80106e-05
 Reference value :  3.80140e-05
 Reference value :  3.80153e-05
 Reference value :  3.80179e-05
 Reference value :  3.80190e-05
 Reference value :  3.80215e-05
 Reference value :  3.80251e-05
 Reference value :  3.80332e-05
 Reference value :  3.80442e-05
 Reference value :  3.80539e-05
 Reference value :  3.80631e-05
 Reference value :  3.80741e-05
 Reference value :  3.80978e-05
 Reference value :  3.81702e-05
 Reference value :  3.82501e-05
 Reference value :  3.82502e-05
 Reference value :  3.82502e-05
 Reference value :  3.82504e-05
 Reference value :  3.82511e-05
 Reference value :  3.82520e-05
 Reference value :  3.82533e-05
 Reference value :  3.82546e-05
 Reference value :  3.82560e-05
 Reference value :  3.82569e-05
 Reference value :  3.82596e-05
 Reference value :  3.82710e-05
 Reference value :  3.83309e-05
 Reference value :  3.85000e-05
 Reference value :  3.85001e-05
 Reference value :  3.85001e-05
 Reference value :  3.85001e-05
 Reference value :  3.85003e-05
 Reference value :  3.85008e-05
 Reference value :  3.85017e-05
 Reference value :  3.85021e-05
 Reference value :  3.85031e-05
 Reference value :  3.85038e-05
 Reference value :  3.85051e-05
 Reference value :  3.85062e-05
 Reference value :  3.85079e-05
 Reference value :  3.85098e-05
 Reference value :  3.85121e-05
 Reference value :  3.85196e-05
 Reference value :  3.85672e-05
 Reference value :  3.87501e-05
 Reference value :  3.87502e-05
 Reference value :  3.87502e-05
 Reference value :  3.87503e-05
 Reference value :  3.87507e-05
 Reference value :  3.87515e-05
 Reference value :  3.87520e-05
 Reference value :  3.87533e-05
 Reference value :  3.87546e-05
 Reference value :  3.87560e-05
 Reference value :  3.87569e-05
 Reference value :  3.87588e-05
 Reference value :  3.87612e-05
 Reference value :  3.87751e-05
 Reference value :  3.89184e-05
 Reference value :  3.90001e-05
 Reference value :  3.90002e-05
 Reference value :  3.90009e-05
 Reference value :  3.90022e-05
 Reference value :  3.90040e-05
 Reference value :  3.90046e-05
 Reference value :  3.90058e-05
 Reference value :  3.90071e-05
 Reference value :  3.90105e-05
 Reference value :  3.90115e-05
 Reference value :  3.90138e-05
 Reference value :  3.90159e-05
 Reference value :  3.90182e-05
 Reference value :  3.90205e-05
 Reference value :  3.90235e-05
 Reference value :  3.90310e-05
 Reference value :  3.90382e-05
 Reference value :  3.90433e-05
 Reference value :  3.90481e-05
 Reference value :  3.90624e-05
 Reference value :  3.91023e-05
 Reference value :  3.92501e-05
 Reference value :  3.92502e-05
 Reference value :  3.92503e-05
 Reference value :  3.92507e-05
 Reference value :  3.92520e-05
 Reference value :  3.92541e-05
 Reference value :  3.92553e-05
 Reference value :  3.92569e-05
 Reference value :  3.92618e-05
 Reference value :  3.92985e-05
 Reference value :  3.94844e-05
 Reference value :  3.95000e-05
 Reference value :  3.95001e-05
 Reference value :  3.95002e-05
 Reference value :  3.95009e-05
 Reference value :  3.95018e-05
 Reference value :  3.95028e-05
 Reference value :  3.95046e-05
 Reference value :  3.95063e-05
 Reference value :  3.95083e-05
 Reference value :  3.95102e-05
 Reference value :  3.95124e-05
 Reference value :  3.95212e-05
 Reference value :  3.95890e-05
 Reference value :  3.97501e-05
 Reference value :  3.97502e-05
 Reference value :  3.97503e-05
 Reference value :  3.97511e-05
 Reference value :  3.97526e-05
 Reference value :  3.97541e-05
 Reference value :  3.97554e-05
 Reference value :  3.97579e-05
 Reference value :  3.97715e-05
 Reference value :  3.98846e-05
 Reference value :  4.00000e-05
 Reference value :  4.00001e-05
 Reference value :  4.00002e-05
 Reference value :  4.00005e-05
 Reference value :  4.00013e-05
 Reference value :  4.00022e-05
 Reference value :  4.00034e-05
 Reference value :  4.00046e-05
 Reference value :  4.00058e-05
 Reference value :  4.00064e-05
 Reference value :  4.00080e-05
 Reference value :  4.00106e-05
 Reference value :  4.00140e-05
 Reference value :  4.00154e-05
 Reference value :  4.00180e-05
 Reference value :  4.00203e-05
 Reference value :  4.00234e-05
 Reference value :  4.00341e-05
 Reference value :  4.00403e-05
 Reference value :  4.00488e-05
 Reference value :  4.00600e-05
 Reference value :  4.00815e-05
 Reference value :  4.01388e-05
 Reference value :  4.02501e-05
 Reference value :  4.02502e-05
 Reference value :  4.02502e-05
 Reference value :  4.02504e-05
 Reference value :  4.02511e-05
 Reference value :  4.02520e-05
 Reference value :  4.02540e-05
 Reference value :  4.02553e-05
 Reference value :  4.02569e-05
 Reference value :  4.02618e-05
 Reference value :  4.02815e-05
 Reference value :  4.04965e-05
 Reference value :  4.05000e-05
 Reference value :  4.05001e-05
 Reference value :  4.05002e-05
 Reference value :  4.05005e-05
 Reference value :  4.05013e-05
 Reference value :  4.05022e-05
 Reference value :  4.05033e-05
 Reference value :  4.05049e-05
 Reference value :  4.05067e-05
 Reference value :  4.05075e-05
 Reference value :  4.05095e-05
 Reference value :  4.05116e-05
 Reference value :  4.05128e-05
 Reference value :  4.05207e-05
 Reference value :  4.05662e-05
 Reference value :  4.07501e-05
 Reference value :  4.07501e-05
 Reference value :  4.07502e-05
 Reference value :  4.07503e-05
 Reference value :  4.07507e-05
 Reference value :  4.07515e-05
 Reference value :  4.07525e-05
 Reference value :  4.07540e-05
 Reference value :  4.07553e-05
 Reference value :  4.07569e-05
 Reference value :  4.07599e-05
 Reference value :  4.07655e-05
 Reference value :  4.07987e-05
 Reference value :  4.10000e-05
 Reference value :  4.10013e-05
 Reference value :  4.10053e-05
 Reference value :  4.10076e-05
 Reference value :  4.10100e-05
 Reference value :  4.10127e-05
 Reference value :  4.10139e-05
 Reference value :  4.10161e-05
 Reference value :  4.10180e-05
 Reference value :  4.10200e-05
 Reference value :  4.10226e-05
 Reference value :  4.10372e-05
 Reference value :  4.10997e-05
 Reference value :  4.12501e-05
 Reference value :  4.12501e-05
 Reference value :  4.12502e-05
 Reference value :  4.12503e-05
 Reference value :  4.12511e-05
 Reference value :  4.12520e-05
 Reference value :  4.12533e-05
 Reference value :  4.12546e-05
 Reference value :  4.12560e-05
 Reference value :  4.12578e-05
 Reference value :  4.12650e-05
 Reference value :  4.12983e-05
 Reference value :  4.14979e-05
 Reference value :  4.15000e-05
 Reference value :  4.15001e-05
 Reference value :  4.15001e-05
 Reference value :  4.15002e-05
 Reference value :  4.15005e-05
 Reference value :  4.15013e-05
 Reference value :  4.15022e-05
 Reference value :  4.15033e-05
 Reference value :  4.15049e-05
 Reference value :  4.15067e-05
 Reference value :  4.15075e-05
 Reference value :  4.15095e-05
 Reference value :  4.15116e-05
 Reference value :  4.15141e-05
 Reference value :  4.15283e-05
 Reference value :  4.16148e-05
 Reference value :  4.17501e-05
 Reference value :  4.17502e-05
 Reference value :  4.17503e-05
 Reference value :  4.17507e-05
 Reference value :  4.17515e-05
 Reference value :  4.17525e-05
 Reference value :  4.17540e-05
 Reference value :  4.17553e-05
 Reference value :  4.17569e-05
 Reference value :  4.17599e-05
 Reference value :  4.17655e-05
 Reference value :  4.17988e-05
 Reference value :  4.19177e-05
 Reference value :  4.20000e-05
 Reference value :  4.20001e-05
 Reference value :  4.20002e-05
 Reference value :  4.20009e-05
 Reference value :  4.20013e-05
 Reference value :  4.20022e-05
 Reference value :  4.20034e-05
 Reference value :  4.20046e-05
 Reference value :  4.20058e-05
 Reference value :  4.20064e-05
 Reference value :  4.20090e-05
 Reference value :  4.20108e-05
 Reference value :  4.20140e-05
 Reference value :  4.20187e-05
 Reference value :  4.20300e-05
 Reference value :  4.20464e-05
 Reference value :  4.20704e-05
 Reference value :  4.20969e-05
 Reference value :  4.21510e-05
 Reference value :  4.22501e-05
 Reference value :  4.22502e-05
 Reference value :  4.22503e-05
 Reference value :  4.22507e-05
 Reference value :  4.22520e-05
 Reference value :  4.22542e-05
 Reference value :  4.22586e-05
 Reference value :  4.22808e-05
 Reference value :  4.25000e-05
 Reference value :  4.25000e-05
 Reference value :  4.25000e-05
 Reference value :  4.25001e-05
 Reference value :  4.25003e-05
 Reference value :  4.25013e-05
 Reference value :  4.25030e-05
 Reference value :  4.25044e-05
 Reference value :  4.25057e-05
 Reference value :  4.25079e-05
 Reference value :  4.25221e-05
 Reference value :  4.25288e-05
 Reference value :  4.25337e-05
 Reference value :  4.25374e-05
 Reference value :  4.25400e-05
 Reference value :  4.25420e-05
 Reference value :  4.25461e-05
 Reference value :  4.25492e-05
 Reference value :  4.25517e-05
 Reference value :  4.25562e-05
 Reference value :  4.25628e-05
 Reference value :  4.25706e-05
 Reference value :  4.25937e-05
 Reference value :  4.26510e-05
 Reference value :  4.27284e-05
 Reference value :  4.27501e-05
 Reference value :  4.27502e-05
 Reference value :  4.27503e-05
 Reference value :  4.27504e-05
 Reference value :  4.27511e-05
 Reference value :  4.27520e-05
 Reference value :  4.27533e-05
 Reference value :  4.27547e-05
 Reference value :  4.27561e-05
 Reference value :  4.27580e-05
 Reference value :  4.27655e-05
 Reference value :  4.28003e-05
 Reference value :  4.29801e-05
 Reference value :  4.30000e-05
 Reference value :  4.30001e-05
 Reference value :  4.30002e-05
 Reference value :  4.30005e-05
 Reference value :  4.30013e-05
 Reference value :  4.30022e-05
 Reference value :  4.30034e-05
 Reference value :  4.30046e-05
 Reference value :  4.30063e-05
 Reference value :  4.30091e-05
 Reference value :  4.30119e-05
 Reference value :  4.30133e-05
 Reference value :  4.30162e-05
 Reference value :  4.30199e-05
 Reference value :  4.30326e-05
 Reference value :  4.31000e-05
 Reference value :  4.31556e-05
 Reference value :  4.32107e-05
 Reference value :  4.32501e-05
 Reference value :  4.32502e-05
 Reference value :  4.32502e-05
 Reference value :  4.32504e-05
 Reference value :  4.32511e-05
 Reference value :  4.32520e-05
 Reference value :  4.32533e-05
 Reference value :  4.32547e-05
 Reference value :  4.32569e-05
 Reference value :  4.32587e-05
 Reference value :  4.32608e-05
 Reference value :  4.32679e-05
 Reference value :  4.33023e-05
 Reference value :  4.34675e-05
 Reference value :  4.35006e-05
 Reference value :  4.35023e-05
 Reference value :  4.35035e-05
 Reference value :  4.35048e-05
 Reference value :  4.35060e-05
 Reference value :  4.35080e-05
 Reference value :  4.35115e-05
 Reference value :  4.35138e-05
 Reference value :  4.35161e-05
 Reference value :  4.35185e-05
 Reference value :  4.35211e-05
 Reference value :  4.35323e-05
 Reference value :  4.35639e-05
 Reference value :  4.35917e-05
 Reference value :  4.36012e-05
 Reference value :  4.36179e-05
 Reference value :  4.36696e-05
 Reference value :  4.37501e-05
 Reference value :  4.37502e-05
 Reference value :  4.37503e-05
 Reference value :  4.37507e-05
 Reference value :  4.37520e-05
 Reference value :  4.37533e-05
 Reference value :  4.37547e-05
 Reference value :  4.37560e-05
 Reference value :  4.37578e-05
 Reference value :  4.37652e-05
 Reference value :  4.38303e-05
 Reference value :  4.40000e-05
 Reference value :  4.40001e-05
 Reference value :  4.40001e-05
 Reference value :  4.40003e-05
 Reference value :  4.40009e-05
 Reference value :  4.40013e-05
 Reference value :  4.40022e-05
 Reference value :  4.40034e-05
 Reference value :  4.40046e-05
 Reference value :  4.40063e-05
 Reference value :  4.40083e-05
 Reference value :  4.40102e-05
 Reference value :  4.40124e-05
 Reference value :  4.40212e-05
 Reference value :  4.40891e-05
 Reference value :  4.42501e-05
 Reference value :  4.42502e-05
 Reference value :  4.42503e-05
 Reference value :  4.42511e-05
 Reference value :  4.42520e-05
 Reference value :  4.42533e-05
 Reference value :  4.42541e-05
 Reference value :  4.42547e-05
 Reference value :  4.42561e-05
 Reference value :  4.42579e-05
 Reference value :  4.42655e-05
 Reference value :  4.42998e-05
 Reference value :  4.44779e-05
 Reference value :  4.45000e-05
 Reference value :  4.45001e-05
 Reference value :  4.45002e-05
 Reference value :  4.45005e-05
 Reference value :  4.45013e-05
 Reference value :  4.45022e-05
 Reference value :  4.45034e-05
 Reference value :  4.45046e-05
 Reference value :  4.45058e-05
 Reference value :  4.45071e-05
 Reference value :  4.45126e-05
 Reference value :  4.45140e-05
 Reference value :  4.45167e-05
 Reference value :  4.45191e-05
 Reference value :  4.45234e-05
 Reference value :  4.45423e-05
 Reference value :  4.46130e-05
 Reference value :  4.47501e-05
 Reference value :  4.47502e-05
 Reference value :  4.47504e-05
 Reference value :  4.47515e-05
 Reference value :  4.47533e-05
 Reference value :  4.47546e-05
 Reference value :  4.47569e-05
 Reference value :  4.47650e-05
 Reference value :  4.48304e-05
 Reference value :  4.50000e-05
 Reference value :  4.50001e-05
 Reference value :  4.50002e-05
 Reference value :  4.50009e-05
 Reference value :  4.50018e-05
 Reference value :  4.50028e-05
 Reference value :  4.50046e-05
 Reference value :  4.50073e-05
 Reference value :  4.50102e-05
 Reference value :  4.50162e-05
 Reference value :  4.51670e-05
 Reference value :  4.52501e-05
 Reference value :  4.52502e-05
 Reference value :  4.52503e-05
 Reference value :  4.52511e-05
 Reference value :  4.52520e-05
 Reference value :  4.52541e-05
 Reference value :  4.52554e-05
 Reference value :  4.52579e-05
 Reference value :  4.52715e-05
 Reference value :  4.53847e-05
 Reference value :  4.55000e-05
 Reference value :  4.55001e-05
 Reference value :  4.55003e-05
 Reference value :  4.55013e-05
 Reference value :  4.55022e-05
 Reference value :  4.55040e-05
 Reference value :  4.55052e-05
 Reference value :  4.55064e-05
 Reference value :  4.55090e-05
 Reference value :  4.55140e-05
 Reference value :  4.55167e-05
 Reference value :  4.55191e-05
 Reference value :  4.55234e-05
 Reference value :  4.55339e-05
 Reference value :  4.55575e-05
 Reference value :  4.56033e-05
 Reference value :  4.56270e-05
 Reference value :  4.56427e-05
 Reference value :  4.56662e-05
 Reference value :  4.56975e-05
 Reference value :  4.57461e-05
 Reference value :  4.57501e-05
 Reference value :  4.57502e-05
 Reference value :  4.57504e-05
 Reference value :  4.57515e-05
 Reference value :  4.57525e-05
 Reference value :  4.57540e-05
 Reference value :  4.57553e-05
 Reference value :  4.57569e-05
 Reference value :  4.57651e-05
 Reference value :  4.58305e-05
 Reference value :  4.60000e-05
 Reference value :  4.60001e-05
 Reference value :  4.60004e-05
 Reference value :  4.60014e-05
 Reference value :  4.60023e-05
 Reference value :  4.60034e-05
 Reference value :  4.60047e-05
 Reference value :  4.60063e-05
 Reference value :  4.60082e-05
 Reference value :  4.60102e-05
 Reference value :  4.60123e-05
 Reference value :  4.60308e-05
 Reference value :  4.61660e-05
 Reference value :  4.62501e-05
 Reference value :  4.62502e-05
 Reference value :  4.62503e-05
 Reference value :  4.62511e-05
 Reference value :  4.62520e-05
 Reference value :  4.62541e-05
 Reference value :  4.62554e-05
 Reference value :  4.62579e-05
 Reference value :  4.62655e-05
 Reference value :  4.63310e-05
 Reference value :  4.65000e-05
 Reference value :  4.65001e-05
 Reference value :  4.65001e-05
 Reference value :  4.65002e-05
 Reference value :  4.65003e-05
 Reference value :  4.65009e-05
 Reference value :  4.65013e-05
 Reference value :  4.65022e-05
 Reference value :  4.65034e-05
 Reference value :  4.65046e-05
 Reference value :  4.65058e-05
 Reference value :  4.65064e-05
 Reference value :  4.65080e-05
 Reference value :  4.65106e-05
 Reference value :  4.65140e-05
 Reference value :  4.65154e-05
 Reference value :  4.65180e-05
 Reference value :  4.65191e-05
 Reference value :  4.65216e-05
 Reference value :  4.65253e-05
 Reference value :  4.65334e-05
 Reference value :  4.65446e-05
 Reference value :  4.65505e-05
 Reference value :  4.65546e-05
[...]
 Reference value :  1.63250e-04
 Reference value :  1.63250e-04
 Reference value :  1.63250e-04
 Reference value :  1.63251e-04
 Reference value :  1.63252e-04
 Reference value :  1.63253e-04
 Reference value :  1.63254e-04
 Reference value :  1.63255e-04
 Reference value :  1.63256e-04
 Reference value :  1.63260e-04
 Reference value :  1.63282e-04
 Reference value :  1.63478e-04
 Reference value :  1.63500e-04
 Reference value :  1.63500e-04
 Reference value :  1.63501e-04
 Reference value :  1.63502e-04
 Reference value :  1.63503e-04
 Reference value :  1.63505e-04
 Reference value :  1.63506e-04
 Reference value :  1.63507e-04
 Reference value :  1.63511e-04
 Reference value :  1.63514e-04
 Reference value :  1.63517e-04
 Reference value :  1.63519e-04
 Reference value :  1.63523e-04
 Reference value :  1.63542e-04
 Reference value :  1.63675e-04
 Reference value :  1.63750e-04
 Reference value :  1.63750e-04
 Reference value :  1.63752e-04
 Reference value :  1.63753e-04
 Reference value :  1.63755e-04
 Reference value :  1.63757e-04
 Reference value :  1.63765e-04
 Reference value :  1.63830e-04
 Reference value :  1.64000e-04
 Reference value :  1.64000e-04
 Reference value :  1.64000e-04
 Reference value :  1.64001e-04
 Reference value :  1.64001e-04
 Reference value :  1.64002e-04
 Reference value :  1.64003e-04
 Reference value :  1.64005e-04
 Reference value :  1.64006e-04
 Reference value :  1.64008e-04
 Reference value :  1.64010e-04
 Reference value :  1.64012e-04
 Reference value :  1.64021e-04
 Reference value :  1.64089e-04
 Reference value :  1.64250e-04
 Reference value :  1.64250e-04
 Reference value :  1.64250e-04
 Reference value :  1.64251e-04
 Reference value :  1.64252e-04
 Reference value :  1.64253e-04
 Reference value :  1.64255e-04
 Reference value :  1.64257e-04
 Reference value :  1.64260e-04
 Reference value :  1.64272e-04
 Reference value :  1.64331e-04
 Reference value :  1.64500e-04
 Reference value :  1.64500e-04
 Reference value :  1.64500e-04
 Reference value :  1.64500e-04
 Reference value :  1.64500e-04
 Reference value :  1.64501e-04
 Reference value :  1.64502e-04
 Reference value :  1.64504e-04
 Reference value :  1.64505e-04
 Reference value :  1.64506e-04
 Reference value :  1.64507e-04
 Reference value :  1.64511e-04
 Reference value :  1.64514e-04
 Reference value :  1.64515e-04
 Reference value :  1.64518e-04
 Reference value :  1.64519e-04
 Reference value :  1.64520e-04
 Reference value :  1.64523e-04
 Reference value :  1.64534e-04
 Reference value :  1.64558e-04
 Reference value :  1.64608e-04
 Reference value :  1.64673e-04
 Reference value :  1.64750e-04
 Reference value :  1.64750e-04
 Reference value :  1.64750e-04
 Reference value :  1.64750e-04
 Reference value :  1.64750e-04
 Reference value :  1.64751e-04
 Reference value :  1.64752e-04
 Reference value :  1.64752e-04
 Reference value :  1.64753e-04
 Reference value :  1.64755e-04
 Reference value :  1.64756e-04
 Reference value :  1.64758e-04
 Reference value :  1.64765e-04
 Reference value :  1.64798e-04
 Reference value :  1.64998e-04
 Reference value :  1.65000e-04
 Reference value :  1.65000e-04
 Reference value :  1.65000e-04
 Reference value :  1.65001e-04
 Reference value :  1.65001e-04
 Reference value :  1.65002e-04
 Reference value :  1.65004e-04
 Reference value :  1.65005e-04
 Reference value :  1.65007e-04
 Reference value :  1.65009e-04
 Reference value :  1.65011e-04
 Reference value :  1.65016e-04
 Reference value :  1.65089e-04
 Reference value :  1.65250e-04
 Reference value :  1.65250e-04
 Reference value :  1.65250e-04
 Reference value :  1.65252e-04
 Reference value :  1.65253e-04
 Reference value :  1.65254e-04
 Reference value :  1.65255e-04
 Reference value :  1.65258e-04
 Reference value :  1.65266e-04
 Reference value :  1.65300e-04
 Reference value :  1.65500e-04
 Reference value :  1.65500e-04
 Reference value :  1.65500e-04
 Reference value :  1.65502e-04
 Reference value :  1.65504e-04
 Reference value :  1.65506e-04
 Reference value :  1.65509e-04
 Reference value :  1.65514e-04
 Reference value :  1.65517e-04
 Reference value :  1.65519e-04
 Reference value :  1.65522e-04
 Reference value :  1.65529e-04
 Reference value :  1.65540e-04
 Reference value :  1.65557e-04
 Reference value :  1.65569e-04
 Reference value :  1.65581e-04
 Reference value :  1.65594e-04
 Reference value :  1.65620e-04
 Reference value :  1.65721e-04
 Reference value :  1.65750e-04
 Reference value :  1.65750e-04
 Reference value :  1.65750e-04
 Reference value :  1.65750e-04
 Reference value :  1.65751e-04
 Reference value :  1.65752e-04
 Reference value :  1.65752e-04
 Reference value :  1.65753e-04
 Reference value :  1.65755e-04
 Reference value :  1.65756e-04
 Reference value :  1.65758e-04
 Reference value :  1.65762e-04
 Reference value :  1.65783e-04
 Reference value :  1.65888e-04
 Reference value :  1.66000e-04
 Reference value :  1.66000e-04
 Reference value :  1.66000e-04
 Reference value :  1.66001e-04
 Reference value :  1.66002e-04
 Reference value :  1.66002e-04
 Reference value :  1.66003e-04
 Reference value :  1.66005e-04
 Reference value :  1.66007e-04
 Reference value :  1.66008e-04
 Reference value :  1.66009e-04
 Reference value :  1.66012e-04
 Reference value :  1.66014e-04
 Reference value :  1.66028e-04
 Reference value :  1.66115e-04
 Reference value :  1.66250e-04
 Reference value :  1.66250e-04
 Reference value :  1.66250e-04
 Reference value :  1.66251e-04
 Reference value :  1.66252e-04
 Reference value :  1.66253e-04
 Reference value :  1.66254e-04
 Reference value :  1.66255e-04
 Reference value :  1.66257e-04
 Reference value :  1.66259e-04
 Reference value :  1.66261e-04
 Reference value :  1.66269e-04
 Reference value :  1.66299e-04
 Reference value :  1.66417e-04
 Reference value :  1.66500e-04
 Reference value :  1.66500e-04
 Reference value :  1.66500e-04
 Reference value :  1.66501e-04
 Reference value :  1.66501e-04
 Reference value :  1.66502e-04
 Reference value :  1.66503e-04
 Reference value :  1.66505e-04
 Reference value :  1.66506e-04
 Reference value :  1.66507e-04
 Reference value :  1.66510e-04
 Reference value :  1.66513e-04
 Reference value :  1.66515e-04
 Reference value :  1.66516e-04
 Reference value :  1.66518e-04
 Reference value :  1.66520e-04
 Reference value :  1.66526e-04
 Reference value :  1.66536e-04
 Reference value :  1.66555e-04
 Reference value :  1.66642e-04
 Reference value :  1.66750e-04
 Reference value :  1.66750e-04
 Reference value :  1.66750e-04
 Reference value :  1.66751e-04
 Reference value :  1.66752e-04
 Reference value :  1.66753e-04
 Reference value :  1.66755e-04
 Reference value :  1.66756e-04
 Reference value :  1.66757e-04
 Reference value :  1.66760e-04
 Reference value :  1.66765e-04
 Reference value :  1.66781e-04
 Reference value :  1.66830e-04
 Reference value :  1.67000e-04
 Reference value :  1.67000e-04
 Reference value :  1.67000e-04
 Reference value :  1.67000e-04
 Reference value :  1.67001e-04
 Reference value :  1.67001e-04
 Reference value :  1.67002e-04
 Reference value :  1.67003e-04
 Reference value :  1.67005e-04
 Reference value :  1.67006e-04
 Reference value :  1.67008e-04
 Reference value :  1.67010e-04
 Reference value :  1.67012e-04
 Reference value :  1.67021e-04
 Reference value :  1.67089e-04
 Reference value :  1.67250e-04
 Reference value :  1.67250e-04
 Reference value :  1.67250e-04
 Reference value :  1.67251e-04
 Reference value :  1.67252e-04
 Reference value :  1.67253e-04
 Reference value :  1.67255e-04
 Reference value :  1.67256e-04
 Reference value :  1.67258e-04
 Reference value :  1.67266e-04
 Reference value :  1.67300e-04
 Reference value :  1.67500e-04
 Reference value :  1.67500e-04
 Reference value :  1.67500e-04
 Reference value :  1.67501e-04
 Reference value :  1.67501e-04
 Reference value :  1.67502e-04
 Reference value :  1.67503e-04
 Reference value :  1.67505e-04
 Reference value :  1.67506e-04
 Reference value :  1.67507e-04
 Reference value :  1.67511e-04
 Reference value :  1.67514e-04
 Reference value :  1.67517e-04
 Reference value :  1.67519e-04
 Reference value :  1.67522e-04
 Reference value :  1.67529e-04
 Reference value :  1.67552e-04
 Reference value :  1.67617e-04
 Reference value :  1.67750e-04
 Reference value :  1.67750e-04
 Reference value :  1.67750e-04
 Reference value :  1.67751e-04
 Reference value :  1.67752e-04
 Reference value :  1.67752e-04
 Reference value :  1.67753e-04
 Reference value :  1.67754e-04
 Reference value :  1.67755e-04
 Reference value :  1.67756e-04
 Reference value :  1.67758e-04
 Reference value :  1.67765e-04
 Reference value :  1.67799e-04
 Reference value :  1.67980e-04
 Reference value :  1.68000e-04
 Reference value :  1.68000e-04
 Reference value :  1.68000e-04
 Reference value :  1.68001e-04
 Reference value :  1.68002e-04
 Reference value :  1.68003e-04
 Reference value :  1.68005e-04
 Reference value :  1.68006e-04
 Reference value :  1.68008e-04
 Reference value :  1.68010e-04
 Reference value :  1.68012e-04
 Reference value :  1.68021e-04
 Reference value :  1.68089e-04
 Reference value :  1.68250e-04
 Reference value :  1.68250e-04
 Reference value :  1.68250e-04
 Reference value :  1.68250e-04
 Reference value :  1.68252e-04
 Reference value :  1.68253e-04
 Reference value :  1.68254e-04
 Reference value :  1.68255e-04
 Reference value :  1.68256e-04
 Reference value :  1.68260e-04
 Reference value :  1.68272e-04
 Reference value :  1.68331e-04
 Reference value :  1.68500e-04
 Reference value :  1.68500e-04
 Reference value :  1.68500e-04
 Reference value :  1.68500e-04
 Reference value :  1.68501e-04
 Reference value :  1.68502e-04
 Reference value :  1.68503e-04
 Reference value :  1.68504e-04
 Reference value :  1.68505e-04
 Reference value :  1.68506e-04
 Reference value :  1.68507e-04
 Reference value :  1.68509e-04
 Reference value :  1.68513e-04
 Reference value :  1.68514e-04
 Reference value :  1.68517e-04
 Reference value :  1.68519e-04
 Reference value :  1.68523e-04
 Reference value :  1.68541e-04
 Reference value :  1.68669e-04
 Reference value :  1.68750e-04
 Reference value :  1.68750e-04
 Reference value :  1.68751e-04
 Reference value :  1.68752e-04
 Reference value :  1.68753e-04
 Reference value :  1.68755e-04
 Reference value :  1.68757e-04
 Reference value :  1.68765e-04
 Reference value :  1.68886e-04
 Reference value :  1.69000e-04
 Reference value :  1.69000e-04
 Reference value :  1.69001e-04
 Reference value :  1.69003e-04
 Reference value :  1.69005e-04
 Reference value :  1.69009e-04
 Reference value :  1.69016e-04
 Reference value :  1.69250e-04
 Reference value :  1.69250e-04
 Reference value :  1.69252e-04
 Reference value :  1.69255e-04
 Reference value :  1.69260e-04
 Reference value :  1.69385e-04
 Reference value :  1.69500e-04
 Reference value :  1.69501e-04
 Reference value :  1.69503e-04
 Reference value :  1.69505e-04
 Reference value :  1.69507e-04
 Reference value :  1.69514e-04
 Reference value :  1.69750e-04
 Reference value :  1.69750e-04
 Reference value :  1.69752e-04
 Reference value :  1.69756e-04
 Reference value :  1.69772e-04
 Reference value :  1.70000e-04
 Reference value :  1.70000e-04
 Reference value :  1.70000e-04
 Reference value :  1.70000e-04
 Reference value :  1.70002e-04
 Reference value :  1.70005e-04
 Reference value :  1.70008e-04
 Reference value :  1.70029e-04
 Reference value :  1.70037e-04
 Reference value :  1.70045e-04
 Reference value :  1.70056e-04
 Reference value :  1.70113e-04
 Reference value :  1.70250e-04
 Reference value :  1.70250e-04
 Reference value :  1.70252e-04
 Reference value :  1.70255e-04
 Reference value :  1.70258e-04
 Reference value :  1.70331e-04
 Reference value :  1.70500e-04
 Reference value :  1.70500e-04
 Reference value :  1.70502e-04
 Reference value :  1.70504e-04
 Reference value :  1.70508e-04
 Reference value :  1.70512e-04
 Reference value :  1.70516e-04
 Reference value :  1.70526e-04
 Reference value :  1.70750e-04
 Reference value :  1.70750e-04
 Reference value :  1.70751e-04
 Reference value :  1.70753e-04
 Reference value :  1.70756e-04
 Reference value :  1.70765e-04
 Reference value :  1.70777e-04
 Reference value :  1.70784e-04
 Reference value :  1.70798e-04
 Reference value :  1.70832e-04
 Reference value :  1.70911e-04
 Reference value :  1.71000e-04
 Reference value :  1.71001e-04
 Reference value :  1.71002e-04
 Reference value :  1.71005e-04
 Reference value :  1.71007e-04
 Reference value :  1.71012e-04
 Reference value :  1.71015e-04
 Reference value :  1.71020e-04
 Reference value :  1.71042e-04
 Reference value :  1.71070e-04
 Reference value :  1.71088e-04
 Reference value :  1.71125e-04
 Reference value :  1.71250e-04
 Reference value :  1.71250e-04
 Reference value :  1.71252e-04
 Reference value :  1.71255e-04
 Reference value :  1.71258e-04
 Reference value :  1.71299e-04
 Reference value :  1.71500e-04
 Reference value :  1.71500e-04
 Reference value :  1.71501e-04
 Reference value :  1.71503e-04
 Reference value :  1.71506e-04
 Reference value :  1.71509e-04
 Reference value :  1.71514e-04
 Reference value :  1.71667e-04
 Reference value :  1.71750e-04
 Reference value :  1.71751e-04
 Reference value :  1.71753e-04
 Reference value :  1.71755e-04
 Reference value :  1.71762e-04
 Reference value :  1.71885e-04
 Reference value :  1.72000e-04
 Reference value :  1.72001e-04
 Reference value :  1.72002e-04
 Reference value :  1.72005e-04
 Reference value :  1.72006e-04
 Reference value :  1.72013e-04
 Reference value :  1.72015e-04
 Reference value :  1.72019e-04
 Reference value :  1.72028e-04
 Reference value :  1.72174e-04
 Reference value :  1.72250e-04
 Reference value :  1.72251e-04
 Reference value :  1.72253e-04
 Reference value :  1.72255e-04
 Reference value :  1.72258e-04
 Reference value :  1.72298e-04
 Reference value :  1.72500e-04
 Reference value :  1.72500e-04
 Reference value :  1.72501e-04
 Reference value :  1.72503e-04
 Reference value :  1.72506e-04
 Reference value :  1.72509e-04
 Reference value :  1.72512e-04
 Reference value :  1.72667e-04
 Reference value :  1.72750e-04
 Reference value :  1.72751e-04
 Reference value :  1.72753e-04
 Reference value :  1.72755e-04
 Reference value :  1.72762e-04
 Reference value :  1.72978e-04
 Reference value :  1.73000e-04
 Reference value :  1.73001e-04
 Reference value :  1.73002e-04
 Reference value :  1.73005e-04
 Reference value :  1.73006e-04
 Reference value :  1.73013e-04
 Reference value :  1.73015e-04
 Reference value :  1.73019e-04
 Reference value :  1.73034e-04
 Reference value :  1.73143e-04
 Reference value :  1.73250e-04
 Reference value :  1.73250e-04
 Reference value :  1.73252e-04
 Reference value :  1.73255e-04
 Reference value :  1.73258e-04
 Reference value :  1.73298e-04
 Reference value :  1.73500e-04
 Reference value :  1.73500e-04
 Reference value :  1.73501e-04
 Reference value :  1.73503e-04
 Reference value :  1.73506e-04
 Reference value :  1.73509e-04
 Reference value :  1.73514e-04
 Reference value :  1.73750e-04
 Reference value :  1.73750e-04
 Reference value :  1.73751e-04
 Reference value :  1.73753e-04
 Reference value :  1.73755e-04
 Reference value :  1.73762e-04
 Reference value :  1.73978e-04
 Reference value :  1.74000e-04
 Reference value :  1.74001e-04
 Reference value :  1.74002e-04
 Reference value :  1.74005e-04
 Reference value :  1.74006e-04
 Reference value :  1.74013e-04
 Reference value :  1.74015e-04
 Reference value :  1.74020e-04
 Reference value :  1.74034e-04
 Reference value :  1.74064e-04
 Reference value :  1.74088e-04
 Reference value :  1.74177e-04
 Reference value :  1.74250e-04
 Reference value :  1.74251e-04
 Reference value :  1.74253e-04
 Reference value :  1.74255e-04
 Reference value :  1.74262e-04
 Reference value :  1.74377e-04
 Reference value :  1.74500e-04
 Reference value :  1.74500e-04
 Reference value :  1.74502e-04
 Reference value :  1.74504e-04
 Reference value :  1.74508e-04
 Reference value :  1.74512e-04
 Reference value :  1.74528e-04
 Reference value :  1.74552e-04
 Reference value :  1.74737e-04
 Reference value :  1.74750e-04
 Reference value :  1.74751e-04
 Reference value :  1.74753e-04
 Reference value :  1.74755e-04
 Reference value :  1.74760e-04
 Reference value :  1.74887e-04
 Reference value :  1.75000e-04
 Reference value :  1.75001e-04
 Reference value :  1.75002e-04
 Reference value :  1.75005e-04
 Reference value :  1.75006e-04
 Reference value :  1.75013e-04
 Reference value :  1.75015e-04
 Reference value :  1.75020e-04
 Reference value :  1.75033e-04
 Reference value :  1.75049e-04
 Reference value :  1.75071e-04
 Reference value :  1.75250e-04
 Reference value :  1.75250e-04
 Reference value :  1.75251e-04
 Reference value :  1.75253e-04
 Reference value :  1.75256e-04
 Reference value :  1.75265e-04
 Reference value :  1.75497e-04
 Reference value :  1.75500e-04
 Reference value :  1.75501e-04
 Reference value :  1.75502e-04
 Reference value :  1.75506e-04
 Reference value :  1.75508e-04
 Reference value :  1.75513e-04
 Reference value :  1.75615e-04
 Reference value :  1.75750e-04
 Reference value :  1.75751e-04
 Reference value :  1.75753e-04
 Reference value :  1.75755e-04
 Reference value :  1.75758e-04
 Reference value :  1.75765e-04
 Reference value :  1.75858e-04
 Reference value :  1.76000e-04
 Reference value :  1.76001e-04
 Reference value :  1.76002e-04
 Reference value :  1.76005e-04
 Reference value :  1.76006e-04
 Reference value :  1.76011e-04
 Reference value :  1.76015e-04
 Reference value :  1.76019e-04
 Reference value :  1.76025e-04
 Reference value :  1.76074e-04
 Reference value :  1.76250e-04
 Reference value :  1.76250e-04
 Reference value :  1.76251e-04
 Reference value :  1.76253e-04
 Reference value :  1.76256e-04
 Reference value :  1.76265e-04
 Reference value :  1.76500e-04
 Reference value :  1.76500e-04
 Reference value :  1.76500e-04
 Reference value :  1.76501e-04
 Reference value :  1.76503e-04
 Reference value :  1.76506e-04
 Reference value :  1.76508e-04
 Reference value :  1.76513e-04
 Reference value :  1.76594e-04
 Reference value :  1.76750e-04
 Reference value :  1.76750e-04
 Reference value :  1.76752e-04
 Reference value :  1.76755e-04
 Reference value :  1.76759e-04
 Reference value :  1.76769e-04
 Reference value :  1.76918e-04
 Reference value :  1.77000e-04
 Reference value :  1.77001e-04
 Reference value :  1.77002e-04
 Reference value :  1.77005e-04
 Reference value :  1.77006e-04
 Reference value :  1.77011e-04
 Reference value :  1.77015e-04
 Reference value :  1.77018e-04
 Reference value :  1.77025e-04
 Reference value :  1.77107e-04
 Reference value :  1.77250e-04
 Reference value :  1.77250e-04
 Reference value :  1.77252e-04
 Reference value :  1.77255e-04
 Reference value :  1.77258e-04
 Reference value :  1.77298e-04
 Reference value :  1.77500e-04
 Reference value :  1.77500e-04
 Reference value :  1.77501e-04
 Reference value :  1.77503e-04
 Reference value :  1.77507e-04
 Reference value :  1.77509e-04
 Reference value :  1.77514e-04
 Reference value :  1.77711e-04
 Reference value :  1.77750e-04
 Reference value :  1.77751e-04
 Reference value :  1.77753e-04
 Reference value :  1.77755e-04
 Reference value :  1.77758e-04
 Reference value :  1.77763e-04
 Reference value :  1.77857e-04
 Reference value :  1.78000e-04
 Reference value :  1.78001e-04
 Reference value :  1.78002e-04
 Reference value :  1.78005e-04
 Reference value :  1.78006e-04
 Reference value :  1.78011e-04
 Reference value :  1.78016e-04
 Reference value :  1.78037e-04
 Reference value :  1.78083e-04
 Reference value :  1.78146e-04
 Reference value :  1.78250e-04
 Reference value :  1.78250e-04
 Reference value :  1.78252e-04
 Reference value :  1.78254e-04
 Reference value :  1.78260e-04
 Reference value :  1.78317e-04
No. of Data Rows : 26342
ngspice-44 done
