
Note: Compatibility modes selected: hs a


Circuit: ** sch_path: /home/issa/cace/sar-adc-using-sky130-pdk/runs/run_2025-09-20_12-25-48/parameters/sampling_rate/run_02/sampling_rate.sch

option SCALE: Scale is set to 1e-06 for instance and model parameters
option SCALE: Scale is set to 1e-06 for instance and model parameters
option SCALE: Scale is set to 1e-06 for instance and model parameters
option SCALE: Scale is set to 1e-06 for instance and model parameters
Doing analysis at TEMP = 27.000000 and TNOM = 27.000000

Using KLU as Direct Linear Solver
Operating point simulation skipped by 'uic',
  now using transient initial conditions.
 Reference value :  1.00000e-12
 Reference value :  1.02800e-12
 Reference value :  1.08400e-12
 Reference value :  1.42000e-12
 Reference value :  3.24473e-12
 Reference value :  6.50389e-12
 Reference value :  1.38744e-11
 Reference value :  2.08132e-11
 Reference value :  3.46910e-11
 Reference value :  6.24466e-11
 Reference value :  1.00000e-10
 Reference value :  1.05551e-10
 Reference value :  1.38858e-10
 Reference value :  2.72085e-10
 Reference value :  6.84280e-10
 Reference value :  1.35867e-09
 Reference value :  2.50465e-09
 Reference value :  4.07631e-09
 Reference value :  5.07255e-09
 Reference value :  6.09769e-09
 Reference value :  6.75298e-09
 Reference value :  8.28826e-09
 Reference value :  1.02259e-08
 Reference value :  1.33119e-08
 Reference value :  1.67311e-08
 Reference value :  2.01986e-08
 Reference value :  2.91189e-08
 Reference value :  3.90499e-08
 Reference value :  4.28019e-08
 Reference value :  5.13840e-08
 Reference value :  5.87395e-08
 Reference value :  6.87108e-08
 Reference value :  1.00201e-07
 Reference value :  2.50100e-07
 Reference value :  2.50170e-07
 Reference value :  2.50208e-07
 Reference value :  2.50254e-07
 Reference value :  2.50391e-07
 Reference value :  2.50672e-07
 Reference value :  2.50950e-07
 Reference value :  2.51671e-07
 Reference value :  2.52636e-07
 Reference value :  2.53199e-07
 Reference value :  2.53686e-07
 Reference value :  2.54739e-07
 Reference value :  2.56172e-07
 Reference value :  2.58683e-07
 Reference value :  2.69539e-07
 Reference value :  2.96023e-07
 Reference value :  3.80692e-07
 Reference value :  5.00010e-07
 Reference value :  5.00070e-07
 Reference value :  5.00108e-07
 Reference value :  5.00156e-07
 Reference value :  5.00338e-07
 Reference value :  5.00827e-07
 Reference value :  5.01532e-07
 Reference value :  5.01942e-07
 Reference value :  5.02338e-07
 Reference value :  5.02818e-07
 Reference value :  5.04630e-07
 Reference value :  5.06443e-07
 Reference value :  5.08785e-07
 Reference value :  5.11229e-07
 Reference value :  5.12471e-07
 Reference value :  5.15542e-07
 Reference value :  5.20636e-07
 Reference value :  5.33836e-07
 Reference value :  6.43788e-07
 Reference value :  7.50130e-07
 Reference value :  7.50208e-07
 Reference value :  7.50320e-07
 Reference value :  7.50688e-07
 Reference value :  7.51397e-07
 Reference value :  7.51860e-07
 Reference value :  7.52295e-07
 Reference value :  7.52990e-07
 Reference value :  7.53446e-07
 Reference value :  7.53972e-07
 Reference value :  7.54484e-07
 Reference value :  7.55770e-07
 Reference value :  7.57453e-07
 Reference value :  7.58281e-07
 Reference value :  7.59545e-07
 Reference value :  7.60934e-07
 Reference value :  7.67043e-07
 Reference value :  7.88242e-07
 Reference value :  9.86102e-07
 Reference value :  1.00001e-06
 Reference value :  1.00007e-06
 Reference value :  1.00011e-06
 Reference value :  1.00016e-06
 Reference value :  1.00022e-06
 Reference value :  1.00052e-06
 Reference value :  1.00083e-06
 Reference value :  1.00119e-06
 Reference value :  1.00158e-06
 Reference value :  1.00242e-06
 Reference value :  1.00290e-06
 Reference value :  1.00389e-06
 Reference value :  1.00484e-06
 Reference value :  1.00663e-06
 Reference value :  1.00757e-06
 Reference value :  1.00933e-06
 Reference value :  1.01018e-06
 Reference value :  1.01114e-06
 Reference value :  1.01192e-06
 Reference value :  1.01353e-06
 Reference value :  1.01528e-06
 Reference value :  1.01722e-06
 Reference value :  1.02046e-06
 Reference value :  1.03740e-06
 Reference value :  1.14244e-06
 Reference value :  1.25011e-06
 Reference value :  1.25017e-06
 Reference value :  1.25022e-06
 Reference value :  1.25032e-06
 Reference value :  1.25069e-06
 Reference value :  1.25140e-06
 Reference value :  1.25230e-06
 Reference value :  1.25300e-06
 Reference value :  1.25345e-06
 Reference value :  1.25462e-06
 Reference value :  1.25601e-06
 Reference value :  1.26173e-06
 Reference value :  1.27275e-06
 Reference value :  1.31682e-06
 Reference value :  1.49313e-06
 Reference value :  1.50001e-06
 Reference value :  1.50007e-06
 Reference value :  1.50011e-06
 Reference value :  1.50016e-06
 Reference value :  1.50034e-06
 Reference value :  1.50083e-06
 Reference value :  1.50154e-06
 Reference value :  1.50235e-06
 Reference value :  1.50282e-06
 Reference value :  1.50388e-06
 Reference value :  1.50464e-06
 Reference value :  1.50598e-06
 Reference value :  1.50749e-06
 Reference value :  1.50925e-06
 Reference value :  1.51147e-06
 Reference value :  1.52259e-06
 Reference value :  1.65030e-06
 Reference value :  1.75013e-06
 Reference value :  1.75021e-06
 Reference value :  1.75032e-06
 Reference value :  1.75098e-06
 Reference value :  1.75186e-06
 Reference value :  1.75299e-06
 Reference value :  1.75345e-06
 Reference value :  1.75448e-06
 Reference value :  1.75580e-06
 Reference value :  1.75752e-06
 Reference value :  1.75966e-06
 Reference value :  1.76750e-06
 Reference value :  1.82074e-06
 Reference value :  2.00001e-06
 Reference value :  2.00007e-06
 Reference value :  2.00012e-06
 Reference value :  2.00022e-06
 Reference value :  2.00083e-06
 Reference value :  2.00158e-06
 Reference value :  2.00242e-06
 Reference value :  2.00342e-06
 Reference value :  2.00390e-06
 Reference value :  2.00484e-06
 Reference value :  2.00534e-06
 Reference value :  2.00593e-06
 Reference value :  2.00664e-06
 Reference value :  2.00758e-06
 Reference value :  2.00933e-06
 Reference value :  2.01017e-06
 Reference value :  2.01113e-06
 Reference value :  2.01269e-06
 Reference value :  2.01353e-06
 Reference value :  2.01528e-06
 Reference value :  2.01722e-06
 Reference value :  2.02045e-06
 Reference value :  2.03722e-06
 Reference value :  2.18130e-06
 Reference value :  2.25010e-06
 Reference value :  2.25013e-06
 Reference value :  2.25020e-06
 Reference value :  2.25022e-06
 Reference value :  2.25026e-06
 Reference value :  2.25032e-06
 Reference value :  2.25045e-06
 Reference value :  2.25069e-06
 Reference value :  2.25098e-06
 Reference value :  2.25140e-06
 Reference value :  2.25186e-06
 Reference value :  2.25230e-06
 Reference value :  2.25299e-06
 Reference value :  2.25345e-06
 Reference value :  2.25462e-06
 Reference value :  2.25601e-06
 Reference value :  2.26174e-06
 Reference value :  2.27275e-06
 Reference value :  2.48421e-06
 Reference value :  2.50003e-06
 Reference value :  2.50011e-06
 Reference value :  2.50016e-06
 Reference value :  2.50034e-06
 Reference value :  2.50083e-06
 Reference value :  2.50154e-06
 Reference value :  2.50235e-06
 Reference value :  2.50333e-06
 Reference value :  2.50464e-06
 Reference value :  2.50598e-06
 Reference value :  2.50749e-06
 Reference value :  2.50924e-06
 Reference value :  2.51029e-06
 Reference value :  2.51146e-06
 Reference value :  2.52243e-06
 Reference value :  2.58160e-06
 Reference value :  2.75010e-06
 Reference value :  2.75017e-06
 Reference value :  2.75022e-06
 Reference value :  2.75032e-06
 Reference value :  2.75069e-06
 Reference value :  2.75140e-06
 Reference value :  2.75229e-06
 Reference value :  2.75299e-06
 Reference value :  2.75344e-06
 Reference value :  2.75448e-06
 Reference value :  2.75502e-06
 Reference value :  2.75661e-06
 Reference value :  2.75836e-06
 Reference value :  2.75964e-06
 Reference value :  2.76742e-06
 Reference value :  2.82002e-06
 Reference value :  3.00003e-06
 Reference value :  3.00011e-06
 Reference value :  3.00016e-06
 Reference value :  3.00034e-06
 Reference value :  3.00083e-06
 Reference value :  3.00158e-06
 Reference value :  3.00242e-06
 Reference value :  3.00290e-06
 Reference value :  3.00342e-06
 Reference value :  3.00390e-06
 Reference value :  3.00484e-06
 Reference value :  3.00664e-06
 Reference value :  3.00758e-06
 Reference value :  3.00841e-06
 Reference value :  3.00928e-06
 Reference value :  3.01016e-06
 Reference value :  3.01191e-06
 Reference value :  3.01357e-06
 Reference value :  3.01535e-06
 Reference value :  3.01634e-06
 Reference value :  3.01913e-06
 Reference value :  3.02854e-06
 Reference value :  3.03363e-06
 Reference value :  3.04261e-06
 Reference value :  3.04546e-06
 Reference value :  3.05096e-06
 Reference value :  3.06924e-06
 Reference value :  3.08470e-06
 Reference value :  3.13129e-06
 Reference value :  3.21967e-06
 Reference value :  3.25011e-06
 Reference value :  3.25017e-06
 Reference value :  3.25022e-06
 Reference value :  3.25045e-06
 Reference value :  3.25098e-06
 Reference value :  3.25140e-06
 Reference value :  3.25186e-06
 Reference value :  3.25299e-06
 Reference value :  3.25399e-06
 Reference value :  3.25461e-06
 Reference value :  3.25598e-06
 Reference value :  3.25889e-06
 Reference value :  3.28682e-06
 Reference value :  3.37317e-06
 Reference value :  3.50001e-06
 Reference value :  3.50007e-06
 Reference value :  3.50011e-06
 Reference value :  3.50016e-06
 Reference value :  3.50034e-06
 Reference value :  3.50083e-06
 Reference value :  3.50158e-06
 Reference value :  3.50242e-06
 Reference value :  3.50290e-06
 Reference value :  3.50399e-06
 Reference value :  3.50553e-06
 Reference value :  3.50616e-06
 Reference value :  3.50771e-06
 Reference value :  3.50956e-06
 Reference value :  3.51555e-06
 Reference value :  3.54822e-06
 Reference value :  3.65773e-06
 Reference value :  3.75010e-06
 Reference value :  3.75013e-06
 Reference value :  3.75020e-06
 Reference value :  3.75026e-06
 Reference value :  3.75045e-06
 Reference value :  3.75098e-06
 Reference value :  3.75186e-06
 Reference value :  3.75299e-06
 Reference value :  3.75397e-06
 Reference value :  3.75502e-06
 Reference value :  3.75660e-06
 Reference value :  3.76360e-06
 Reference value :  3.78232e-06
 Reference value :  3.95711e-06
 Reference value :  4.00000e-06
 Reference value :  4.00003e-06
 Reference value :  4.00007e-06
 Reference value :  4.00011e-06
 Reference value :  4.00022e-06
 Reference value :  4.00052e-06
 Reference value :  4.00119e-06
 Reference value :  4.00158e-06
 Reference value :  4.00201e-06
 Reference value :  4.00289e-06
 Reference value :  4.00396e-06
 Reference value :  4.00500e-06
 Reference value :  4.00632e-06
 Reference value :  4.00847e-06
 Reference value :  4.01120e-06
 Reference value :  4.01224e-06
 Reference value :  4.01428e-06
 Reference value :  4.01626e-06
 Reference value :  4.02075e-06
 Reference value :  4.03626e-06
 Reference value :  4.09632e-06
 Reference value :  4.20494e-06
 Reference value :  4.25010e-06
 Reference value :  4.25017e-06
 Reference value :  4.25022e-06
 Reference value :  4.25045e-06
 Reference value :  4.25140e-06
 Reference value :  4.25229e-06
 Reference value :  4.25299e-06
 Reference value :  4.25398e-06
 Reference value :  4.25524e-06
 Reference value :  4.25891e-06
 Reference value :  4.27250e-06
 Reference value :  4.48941e-06
 Reference value :  4.50003e-06
 Reference value :  4.50011e-06
 Reference value :  4.50022e-06
 Reference value :  4.50052e-06
 Reference value :  4.50119e-06
 Reference value :  4.50201e-06
 Reference value :  4.50290e-06
 Reference value :  4.50399e-06
 Reference value :  4.50553e-06
 Reference value :  4.50616e-06
 Reference value :  4.50771e-06
 Reference value :  4.50956e-06
 Reference value :  4.51552e-06
 Reference value :  4.52975e-06
 Reference value :  4.58347e-06
 Reference value :  4.75011e-06
 Reference value :  4.75017e-06
 Reference value :  4.75022e-06
 Reference value :  4.75045e-06
 Reference value :  4.75098e-06
 Reference value :  4.75186e-06
 Reference value :  4.75299e-06
 Reference value :  4.75344e-06
 Reference value :  4.75397e-06
 Reference value :  4.75448e-06
 Reference value :  4.75579e-06
 Reference value :  4.76028e-06
 Reference value :  4.76989e-06
 Reference value :  4.80754e-06
 Reference value :  4.95813e-06
 Reference value :  5.00001e-06
 Reference value :  5.00007e-06
 Reference value :  5.00011e-06
 Reference value :  5.00016e-06
 Reference value :  5.00034e-06
 Reference value :  5.00083e-06
 Reference value :  5.00158e-06
 Reference value :  5.00242e-06
 Reference value :  5.00289e-06
 Reference value :  5.00396e-06
 Reference value :  5.00500e-06
 Reference value :  5.00631e-06
 Reference value :  5.00847e-06
 Reference value :  5.01120e-06
 Reference value :  5.01223e-06
 Reference value :  5.01428e-06
 Reference value :  5.01524e-06
 Reference value :  5.01738e-06
 Reference value :  5.02394e-06
 Reference value :  5.03625e-06
 Reference value :  5.06291e-06
 Reference value :  5.12836e-06
 Reference value :  5.25010e-06
 Reference value :  5.25013e-06
 Reference value :  5.25020e-06
 Reference value :  5.25026e-06
 Reference value :  5.25045e-06
 Reference value :  5.25098e-06
 Reference value :  5.25140e-06
 Reference value :  5.25229e-06
 Reference value :  5.25345e-06
 Reference value :  5.25398e-06
 Reference value :  5.25524e-06
 Reference value :  5.25742e-06
 Reference value :  5.26525e-06
 Reference value :  5.31574e-06
 Reference value :  5.48883e-06
 Reference value :  5.50001e-06
 Reference value :  5.50007e-06
 Reference value :  5.50010e-06
 Reference value :  5.50012e-06
 Reference value :  5.50016e-06
 Reference value :  5.50034e-06
 Reference value :  5.50083e-06
 Reference value :  5.50158e-06
 Reference value :  5.50242e-06
 Reference value :  5.50290e-06
 Reference value :  5.50399e-06
 Reference value :  5.50553e-06
 Reference value :  5.50616e-06
 Reference value :  5.50771e-06
 Reference value :  5.51086e-06
 Reference value :  5.52964e-06
 Reference value :  5.65387e-06
 Reference value :  5.75011e-06
 Reference value :  5.75017e-06
 Reference value :  5.75021e-06
 Reference value :  5.75026e-06
 Reference value :  5.75045e-06
 Reference value :  5.75098e-06
 Reference value :  5.75186e-06
 Reference value :  5.75299e-06
 Reference value :  5.75344e-06
 Reference value :  5.75448e-06
 Reference value :  5.75579e-06
 Reference value :  5.76028e-06
 Reference value :  5.78241e-06
 Reference value :  5.95788e-06
 Reference value :  6.00003e-06
 Reference value :  6.00011e-06
 Reference value :  6.00016e-06
 Reference value :  6.00052e-06
 Reference value :  6.00119e-06
 Reference value :  6.00158e-06
 Reference value :  6.00289e-06
 Reference value :  6.00396e-06
 Reference value :  6.00500e-06
 Reference value :  6.00631e-06
 Reference value :  6.00997e-06
 Reference value :  6.01120e-06
 Reference value :  6.01323e-06
 Reference value :  6.01524e-06
 Reference value :  6.01912e-06
 Reference value :  6.02809e-06
 Reference value :  6.04060e-06
 Reference value :  6.05054e-06
 Reference value :  6.06244e-06
 Reference value :  6.07491e-06
 Reference value :  6.12922e-06
 Reference value :  6.21150e-06
 Reference value :  6.25011e-06
 Reference value :  6.25013e-06
 Reference value :  6.25021e-06
 Reference value :  6.25026e-06
 Reference value :  6.25032e-06
 Reference value :  6.25045e-06
 Reference value :  6.25098e-06
 Reference value :  6.25140e-06
 Reference value :  6.25229e-06
 Reference value :  6.25299e-06
 Reference value :  6.25343e-06
 Reference value :  6.25394e-06
 Reference value :  6.25455e-06
 Reference value :  6.25526e-06
 Reference value :  6.25594e-06
 Reference value :  6.25731e-06
 Reference value :  6.25876e-06
 Reference value :  6.26146e-06
 Reference value :  6.27179e-06
 Reference value :  6.28557e-06
 Reference value :  6.36825e-06
 Reference value :  6.50000e-06
 Reference value :  6.50003e-06
 Reference value :  6.50010e-06
 Reference value :  6.50012e-06
 Reference value :  6.50022e-06
 Reference value :  6.50034e-06
 Reference value :  6.50083e-06
 Reference value :  6.50119e-06
 Reference value :  6.50154e-06
 Reference value :  6.50195e-06
 Reference value :  6.50282e-06
 Reference value :  6.50333e-06
 Reference value :  6.50464e-06
 Reference value :  6.50598e-06
 Reference value :  6.50664e-06
 Reference value :  6.50749e-06
 Reference value :  6.50924e-06
 Reference value :  6.51028e-06
 Reference value :  6.51669e-06
 Reference value :  6.54766e-06
 Reference value :  6.75010e-06
 Reference value :  6.75017e-06
 Reference value :  6.75022e-06
 Reference value :  6.75045e-06
 Reference value :  6.75098e-06
 Reference value :  6.75139e-06
 Reference value :  6.75229e-06
 Reference value :  6.75299e-06
 Reference value :  6.75344e-06
 Reference value :  6.75447e-06
 Reference value :  6.75502e-06
 Reference value :  6.75579e-06
 Reference value :  6.75750e-06
 Reference value :  6.75963e-06
 Reference value :  6.76364e-06
 Reference value :  6.78976e-06
 Reference value :  6.87929e-06
 Reference value :  7.00000e-06
 Reference value :  7.00003e-06
 Reference value :  7.00010e-06
 Reference value :  7.00012e-06
 Reference value :  7.00022e-06
 Reference value :  7.00052e-06
 Reference value :  7.00119e-06
 Reference value :  7.00158e-06
 Reference value :  7.00242e-06
 Reference value :  7.00290e-06
 Reference value :  7.00390e-06
 Reference value :  7.00484e-06
 Reference value :  7.00664e-06
 Reference value :  7.00758e-06
 Reference value :  7.00933e-06
 Reference value :  7.01016e-06
 Reference value :  7.01100e-06
 Reference value :  7.01179e-06
 Reference value :  7.01260e-06
 Reference value :  7.01433e-06
 Reference value :  7.01628e-06
 Reference value :  7.01881e-06
 Reference value :  7.02676e-06
 Reference value :  7.04294e-06
 Reference value :  7.09528e-06
 Reference value :  7.25010e-06
 Reference value :  7.25013e-06
 Reference value :  7.25017e-06
 Reference value :  7.25020e-06
 Reference value :  7.25022e-06
 Reference value :  7.25026e-06
 Reference value :  7.25032e-06
 Reference value :  7.25045e-06
 Reference value :  7.25069e-06
 Reference value :  7.25098e-06
 Reference value :  7.25140e-06
 Reference value :  7.25229e-06
 Reference value :  7.25299e-06
 Reference value :  7.25344e-06
 Reference value :  7.25462e-06
 Reference value :  7.25601e-06
 Reference value :  7.25896e-06
 Reference value :  7.27274e-06
 Reference value :  7.31671e-06
 Reference value :  7.50000e-06
 Reference value :  7.50001e-06
 Reference value :  7.50007e-06
 Reference value :  7.50011e-06
 Reference value :  7.50016e-06
 Reference value :  7.50022e-06
 Reference value :  7.50034e-06
 Reference value :  7.50052e-06
 Reference value :  7.50083e-06
 Reference value :  7.50119e-06
 Reference value :  7.50154e-06
 Reference value :  7.50195e-06
 Reference value :  7.50282e-06
 Reference value :  7.50389e-06
 Reference value :  7.50464e-06
 Reference value :  7.50536e-06
 Reference value :  7.50598e-06
 Reference value :  7.50749e-06
 Reference value :  7.50839e-06
 Reference value :  7.51028e-06
 Reference value :  7.51667e-06
 Reference value :  7.53158e-06
 Reference value :  7.54744e-06
 Reference value :  7.64256e-06
 Reference value :  7.75013e-06
 Reference value :  7.75020e-06
 Reference value :  7.75022e-06
 Reference value :  7.75045e-06
 Reference value :  7.75139e-06
 Reference value :  7.75229e-06
 Reference value :  7.75344e-06
 Reference value :  7.75397e-06
 Reference value :  7.75447e-06
 Reference value :  7.75578e-06
 Reference value :  7.75747e-06
 Reference value :  7.75958e-06
 Reference value :  7.76718e-06
 Reference value :  7.81774e-06
 Reference value :  8.00000e-06
 Reference value :  8.00007e-06
 Reference value :  8.00012e-06
 Reference value :  8.00034e-06
 Reference value :  8.00083e-06
 Reference value :  8.00158e-06
 Reference value :  8.00242e-06
 Reference value :  8.00290e-06
 Reference value :  8.00342e-06
 Reference value :  8.00389e-06
 Reference value :  8.00439e-06
 Reference value :  8.00484e-06
 Reference value :  8.00533e-06
 Reference value :  8.00592e-06
 Reference value :  8.00663e-06
 Reference value :  8.00742e-06
 Reference value :  8.00818e-06
 Reference value :  8.00902e-06
 Reference value :  8.00987e-06
 Reference value :  8.01275e-06
 Reference value :  8.01397e-06
 Reference value :  8.01640e-06
 Reference value :  8.03028e-06
 Reference value :  8.05357e-06
 Reference value :  8.07155e-06
 Reference value :  8.08579e-06
 Reference value :  8.09543e-06
 Reference value :  8.11934e-06
 Reference value :  8.15487e-06
 Reference value :  8.25010e-06
 Reference value :  8.25011e-06
 Reference value :  8.25017e-06
 Reference value :  8.25021e-06
 Reference value :  8.25022e-06
 Reference value :  8.25032e-06
 Reference value :  8.25070e-06
 Reference value :  8.25099e-06
 Reference value :  8.25139e-06
 Reference value :  8.25186e-06
 Reference value :  8.25298e-06
 Reference value :  8.25452e-06
 Reference value :  8.25535e-06
 Reference value :  8.25623e-06
 Reference value :  8.25768e-06
 Reference value :  8.26192e-06
 Reference value :  8.27499e-06
 Reference value :  8.32174e-06
 Reference value :  8.50000e-06
 Reference value :  8.50003e-06
 Reference value :  8.50011e-06
 Reference value :  8.50016e-06
 Reference value :  8.50035e-06
 Reference value :  8.50091e-06
 Reference value :  8.50135e-06
 Reference value :  8.50228e-06
 Reference value :  8.50335e-06
 Reference value :  8.50392e-06
 Reference value :  8.50438e-06
 Reference value :  8.50548e-06
 Reference value :  8.50735e-06
 Reference value :  8.51166e-06
 Reference value :  8.51717e-06
 Reference value :  8.52105e-06
 Reference value :  8.52584e-06
 Reference value :  8.52760e-06
 Reference value :  8.53087e-06
 Reference value :  8.53221e-06
 Reference value :  8.53347e-06
 Reference value :  8.53425e-06
 Reference value :  8.53513e-06
 Reference value :  8.53742e-06
 Reference value :  8.53849e-06
 Reference value :  8.54301e-06
 Reference value :  8.55063e-06
 Reference value :  8.55435e-06
 Reference value :  8.56319e-06
 Reference value :  8.57602e-06
 Reference value :  8.59714e-06
 Reference value :  8.60757e-06
 Reference value :  8.61723e-06
 Reference value :  8.62460e-06
 Reference value :  8.62932e-06
 Reference value :  8.63337e-06
 Reference value :  8.64166e-06
 Reference value :  8.65260e-06
 Reference value :  8.67215e-06
 Reference value :  8.70462e-06
 Reference value :  8.73753e-06
 Reference value :  8.75011e-06
 Reference value :  8.75013e-06
 Reference value :  8.75020e-06
 Reference value :  8.75026e-06
 Reference value :  8.75069e-06
 Reference value :  8.75139e-06
 Reference value :  8.75229e-06
 Reference value :  8.75340e-06
 Reference value :  8.75453e-06
 Reference value :  8.75592e-06
 Reference value :  8.76144e-06
 Reference value :  8.78503e-06
 Reference value :  8.97370e-06
No. of Data Rows : 1341
ngspice-44 done
