
Note: Compatibility modes selected: hs a


Circuit: ** sch_path: /home/audrey/cace/sar-adc-using-sky130-pdk/runs/run_2025-09-01_16-40-40/parameters/power/run_08/power_consumption.sch

option SCALE: Scale is set to 1e-06 for instance and model parameters
option SCALE: Scale is set to 1e-06 for instance and model parameters
option SCALE: Scale is set to 1e-06 for instance and model parameters
option SCALE: Scale is set to 1e-06 for instance and model parameters
Doing analysis at TEMP = 27.000000 and TNOM = 27.000000

Using KLU as Direct Linear Solver
 Reference value :  0.00000e+00
 Reference value :  4.00000e-12
 Reference value :  8.00000e-12
 Reference value :  3.20000e-11
 Reference value :  6.40000e-11
 Reference value :  1.00000e-10
 Reference value :  1.44800e-10
 Reference value :  2.98400e-10
 Reference value :  7.26266e-10
 Reference value :  1.41207e-09
 Reference value :  1.80184e-09
 Reference value :  2.66570e-09
 Reference value :  3.12356e-09
 Reference value :  3.60740e-09
 Reference value :  4.17835e-09
 Reference value :  4.71495e-09
 Reference value :  5.27790e-09
 Reference value :  5.95098e-09
 Reference value :  6.67487e-09
 Reference value :  7.43800e-09
 Reference value :  8.28888e-09
 Reference value :  9.13001e-09
 Reference value :  1.01841e-08
 Reference value :  1.12975e-08
 Reference value :  1.21034e-08
 Reference value :  1.36623e-08
 Reference value :  1.44789e-08
 Reference value :  1.70786e-08
 Reference value :  1.87555e-08
 Reference value :  2.20373e-08
 Reference value :  2.31965e-08
 Reference value :  2.50700e-08
 Reference value :  2.78181e-08
 Reference value :  2.98383e-08
 Reference value :  3.76011e-08
 Reference value :  5.37784e-08
 Reference value :  1.37599e-07
 Reference value :  2.50110e-07
 Reference value :  2.50170e-07
 Reference value :  2.50207e-07
 Reference value :  2.50220e-07
 Reference value :  2.50299e-07
 Reference value :  2.50515e-07
 Reference value :  2.50692e-07
 Reference value :  2.51316e-07
 Reference value :  2.51727e-07
 Reference value :  2.52759e-07
 Reference value :  2.53531e-07
 Reference value :  2.54066e-07
 Reference value :  2.54683e-07
 Reference value :  2.56182e-07
 Reference value :  2.56993e-07
 Reference value :  2.58380e-07
 Reference value :  2.59846e-07
 Reference value :  2.66002e-07
 Reference value :  2.72811e-07
 Reference value :  2.84171e-07
 Reference value :  3.03157e-07
 Reference value :  3.39253e-07
 Reference value :  3.95865e-07
 Reference value :  4.45882e-07
 Reference value :  4.80564e-07
 Reference value :  5.00000e-07
 Reference value :  5.00070e-07
 Reference value :  5.00108e-07
 Reference value :  5.00156e-07
 Reference value :  5.00220e-07
 Reference value :  5.00345e-07
 Reference value :  5.00863e-07
 Reference value :  5.01309e-07
 Reference value :  5.01737e-07
 Reference value :  5.02655e-07
 Reference value :  5.03200e-07
 Reference value :  5.03781e-07
 Reference value :  5.04412e-07
 Reference value :  5.06091e-07
 Reference value :  5.07262e-07
 Reference value :  5.09711e-07
 Reference value :  5.10922e-07
 Reference value :  5.12594e-07
 Reference value :  5.14307e-07
 Reference value :  5.18006e-07
 Reference value :  5.23867e-07
 Reference value :  5.29929e-07
 Reference value :  5.56597e-07
 Reference value :  6.58296e-07
 Reference value :  7.50110e-07
 Reference value :  7.50170e-07
 Reference value :  7.50200e-07
 Reference value :  7.50208e-07
 Reference value :  7.50224e-07
 Reference value :  7.50448e-07
 Reference value :  7.50838e-07
 Reference value :  7.51269e-07
 Reference value :  7.52153e-07
 Reference value :  7.53509e-07
 Reference value :  7.54023e-07
 Reference value :  7.55270e-07
 Reference value :  7.55930e-07
 Reference value :  7.56710e-07
 Reference value :  7.58670e-07
 Reference value :  7.61400e-07
 Reference value :  7.71730e-07
 Reference value :  7.94588e-07
 Reference value :  8.57814e-07
 Reference value :  1.00001e-06
 Reference value :  1.00007e-06
 Reference value :  1.00012e-06
 Reference value :  1.00022e-06
 Reference value :  1.00052e-06
 Reference value :  1.00086e-06
 Reference value :  1.00131e-06
 Reference value :  1.00231e-06
 Reference value :  1.00278e-06
 Reference value :  1.00334e-06
 Reference value :  1.00393e-06
 Reference value :  1.00457e-06
 Reference value :  1.00519e-06
 Reference value :  1.00582e-06
 Reference value :  1.00733e-06
 Reference value :  1.00944e-06
 Reference value :  1.01047e-06
 Reference value :  1.01153e-06
 Reference value :  1.01349e-06
 Reference value :  1.01527e-06
 Reference value :  1.01722e-06
 Reference value :  1.01830e-06
 Reference value :  1.02317e-06
 Reference value :  1.02691e-06
 Reference value :  1.03363e-06
 Reference value :  1.06052e-06
 Reference value :  1.09224e-06
 Reference value :  1.10542e-06
 Reference value :  1.11224e-06
 Reference value :  1.11887e-06
 Reference value :  1.12557e-06
 Reference value :  1.13222e-06
 Reference value :  1.15078e-06
 Reference value :  1.16720e-06
 Reference value :  1.23290e-06
 Reference value :  1.25011e-06
 Reference value :  1.25017e-06
 Reference value :  1.25021e-06
 Reference value :  1.25032e-06
 Reference value :  1.25044e-06
 Reference value :  1.25126e-06
 Reference value :  1.25214e-06
 Reference value :  1.25350e-06
 Reference value :  1.25401e-06
 Reference value :  1.25524e-06
 Reference value :  1.25598e-06
 Reference value :  1.25831e-06
 Reference value :  1.26312e-06
 Reference value :  1.39690e-06
 Reference value :  1.50003e-06
 Reference value :  1.50010e-06
 Reference value :  1.50012e-06
 Reference value :  1.50022e-06
 Reference value :  1.50052e-06
 Reference value :  1.50086e-06
 Reference value :  1.50131e-06
 Reference value :  1.50231e-06
 Reference value :  1.50333e-06
 Reference value :  1.50391e-06
 Reference value :  1.50549e-06
 Reference value :  1.50715e-06
 Reference value :  1.50801e-06
 Reference value :  1.50888e-06
 Reference value :  1.51095e-06
 Reference value :  1.51464e-06
 Reference value :  1.53538e-06
 Reference value :  1.59062e-06
 Reference value :  1.75010e-06
 Reference value :  1.75011e-06
 Reference value :  1.75017e-06
 Reference value :  1.75021e-06
 Reference value :  1.75026e-06
 Reference value :  1.75032e-06
 Reference value :  1.75060e-06
 Reference value :  1.75084e-06
 Reference value :  1.75127e-06
 Reference value :  1.75171e-06
 Reference value :  1.75273e-06
 Reference value :  1.75351e-06
 Reference value :  1.75402e-06
 Reference value :  1.75598e-06
 Reference value :  1.75801e-06
 Reference value :  1.76274e-06
 Reference value :  1.77711e-06
 Reference value :  1.82328e-06
 Reference value :  2.00000e-06
 Reference value :  2.00007e-06
 Reference value :  2.00012e-06
 Reference value :  2.00022e-06
 Reference value :  2.00052e-06
 Reference value :  2.00131e-06
 Reference value :  2.00231e-06
 Reference value :  2.00332e-06
 Reference value :  2.00449e-06
 Reference value :  2.00521e-06
 Reference value :  2.00748e-06
 Reference value :  2.01007e-06
 Reference value :  2.01150e-06
 Reference value :  2.01276e-06
 Reference value :  2.01376e-06
 Reference value :  2.01584e-06
 Reference value :  2.01685e-06
 Reference value :  2.01906e-06
 Reference value :  2.02527e-06
 Reference value :  2.05284e-06
 Reference value :  2.10746e-06
 Reference value :  2.25010e-06
 Reference value :  2.25013e-06
 Reference value :  2.25017e-06
 Reference value :  2.25021e-06
 Reference value :  2.25026e-06
 Reference value :  2.25045e-06
 Reference value :  2.25060e-06
 Reference value :  2.25127e-06
 Reference value :  2.25171e-06
 Reference value :  2.25273e-06
 Reference value :  2.25352e-06
 Reference value :  2.25404e-06
 Reference value :  2.25527e-06
 Reference value :  2.25600e-06
 Reference value :  2.25834e-06
 Reference value :  2.26319e-06
 Reference value :  2.27671e-06
 Reference value :  2.32737e-06
 Reference value :  2.50000e-06
 Reference value :  2.50003e-06
 Reference value :  2.50007e-06
 Reference value :  2.50011e-06
 Reference value :  2.50016e-06
 Reference value :  2.50034e-06
 Reference value :  2.50131e-06
 Reference value :  2.50231e-06
 Reference value :  2.50278e-06
 Reference value :  2.50333e-06
 Reference value :  2.50455e-06
 Reference value :  2.50550e-06
 Reference value :  2.50716e-06
 Reference value :  2.50888e-06
 Reference value :  2.51095e-06
 Reference value :  2.51463e-06
 Reference value :  2.52428e-06
 Reference value :  2.55295e-06
 Reference value :  2.75010e-06
 Reference value :  2.75013e-06
 Reference value :  2.75020e-06
 Reference value :  2.75026e-06
 Reference value :  2.75032e-06
 Reference value :  2.75060e-06
 Reference value :  2.75171e-06
 Reference value :  2.75215e-06
 Reference value :  2.75351e-06
 Reference value :  2.75402e-06
 Reference value :  2.75461e-06
 Reference value :  2.75527e-06
 Reference value :  2.75598e-06
 Reference value :  2.76020e-06
 Reference value :  2.77723e-06
 Reference value :  2.82344e-06
 Reference value :  3.00001e-06
 Reference value :  3.00007e-06
 Reference value :  3.00011e-06
 Reference value :  3.00016e-06
 Reference value :  3.00034e-06
 Reference value :  3.00086e-06
 Reference value :  3.00182e-06
 Reference value :  3.00278e-06
 Reference value :  3.00332e-06
 Reference value :  3.00449e-06
 Reference value :  3.00585e-06
 Reference value :  3.00852e-06
 Reference value :  3.01150e-06
 Reference value :  3.01275e-06
 Reference value :  3.01375e-06
 Reference value :  3.01583e-06
 Reference value :  3.01684e-06
 Reference value :  3.01788e-06
 Reference value :  3.02062e-06
 Reference value :  3.03035e-06
 Reference value :  3.05287e-06
 Reference value :  3.07167e-06
 Reference value :  3.10072e-06
 Reference value :  3.12068e-06
 Reference value :  3.15819e-06
 Reference value :  3.20975e-06
 Reference value :  3.23186e-06
 Reference value :  3.25011e-06
 Reference value :  3.25020e-06
 Reference value :  3.25021e-06
 Reference value :  3.25022e-06
 Reference value :  3.25032e-06
 Reference value :  3.25045e-06
 Reference value :  3.25084e-06
 Reference value :  3.25127e-06
 Reference value :  3.25171e-06
 Reference value :  3.25216e-06
 Reference value :  3.25273e-06
 Reference value :  3.25344e-06
 Reference value :  3.25393e-06
 Reference value :  3.25509e-06
 Reference value :  3.25580e-06
 Reference value :  3.25656e-06
 Reference value :  3.25808e-06
 Reference value :  3.25970e-06
 Reference value :  3.26179e-06
 Reference value :  3.26433e-06
 Reference value :  3.26975e-06
 Reference value :  3.28050e-06
 Reference value :  3.28616e-06
 Reference value :  3.30696e-06
 Reference value :  3.45226e-06
 Reference value :  3.50000e-06
 Reference value :  3.50003e-06
 Reference value :  3.50011e-06
 Reference value :  3.50016e-06
 Reference value :  3.50034e-06
 Reference value :  3.50086e-06
 Reference value :  3.50131e-06
 Reference value :  3.50182e-06
 Reference value :  3.50278e-06
 Reference value :  3.50333e-06
 Reference value :  3.50455e-06
 Reference value :  3.50550e-06
 Reference value :  3.50716e-06
 Reference value :  3.50888e-06
 Reference value :  3.51094e-06
 Reference value :  3.51461e-06
 Reference value :  3.51802e-06
 Reference value :  3.52419e-06
 Reference value :  3.55253e-06
 Reference value :  3.58799e-06
 Reference value :  3.75010e-06
 Reference value :  3.75013e-06
 Reference value :  3.75020e-06
 Reference value :  3.75021e-06
 Reference value :  3.75026e-06
 Reference value :  3.75045e-06
 Reference value :  3.75060e-06
 Reference value :  3.75084e-06
 Reference value :  3.75171e-06
 Reference value :  3.75215e-06
 Reference value :  3.75350e-06
 Reference value :  3.75402e-06
 Reference value :  3.75526e-06
 Reference value :  3.75689e-06
 Reference value :  3.76273e-06
 Reference value :  3.79257e-06
 Reference value :  3.88485e-06
 Reference value :  4.00001e-06
 Reference value :  4.00007e-06
 Reference value :  4.00010e-06
 Reference value :  4.00016e-06
 Reference value :  4.00052e-06
 Reference value :  4.00182e-06
 Reference value :  4.00332e-06
 Reference value :  4.00449e-06
 Reference value :  4.00586e-06
 Reference value :  4.00853e-06
 Reference value :  4.01007e-06
 Reference value :  4.01288e-06
 Reference value :  4.01490e-06
 Reference value :  4.01606e-06
 Reference value :  4.01820e-06
 Reference value :  4.02113e-06
 Reference value :  4.02618e-06
 Reference value :  4.03295e-06
 Reference value :  4.04077e-06
 Reference value :  4.04828e-06
 Reference value :  4.06263e-06
 Reference value :  4.08172e-06
 Reference value :  4.21412e-06
 Reference value :  4.25017e-06
 Reference value :  4.25026e-06
 Reference value :  4.25054e-06
 Reference value :  4.25099e-06
 Reference value :  4.25194e-06
 Reference value :  4.25312e-06
 Reference value :  4.25442e-06
 Reference value :  4.25570e-06
 Reference value :  4.25950e-06
 Reference value :  4.28919e-06
 Reference value :  4.49737e-06
 Reference value :  4.50001e-06
 Reference value :  4.50003e-06
 Reference value :  4.50010e-06
 Reference value :  4.50012e-06
 Reference value :  4.50035e-06
 Reference value :  4.50145e-06
 Reference value :  4.50243e-06
 Reference value :  4.50347e-06
 Reference value :  4.50471e-06
 Reference value :  4.50648e-06
 Reference value :  4.50836e-06
 Reference value :  4.50928e-06
 Reference value :  4.51137e-06
 Reference value :  4.51876e-06
 Reference value :  4.53803e-06
 Reference value :  4.75010e-06
 Reference value :  4.75013e-06
 Reference value :  4.75021e-06
 Reference value :  4.75032e-06
 Reference value :  4.75054e-06
 Reference value :  4.75147e-06
 Reference value :  4.75245e-06
 Reference value :  4.75382e-06
 Reference value :  4.75440e-06
 Reference value :  4.75567e-06
 Reference value :  4.75643e-06
 Reference value :  4.75808e-06
 Reference value :  4.76025e-06
 Reference value :  4.76721e-06
 Reference value :  4.81634e-06
 Reference value :  5.00001e-06
 Reference value :  5.00007e-06
 Reference value :  5.00012e-06
 Reference value :  5.00035e-06
 Reference value :  5.00093e-06
 Reference value :  5.00196e-06
 Reference value :  5.00245e-06
 Reference value :  5.00350e-06
 Reference value :  5.00459e-06
 Reference value :  5.00646e-06
 Reference value :  5.00816e-06
 Reference value :  5.01065e-06
 Reference value :  5.01174e-06
 Reference value :  5.01293e-06
 Reference value :  5.01377e-06
 Reference value :  5.01552e-06
 Reference value :  5.01744e-06
 Reference value :  5.02183e-06
 Reference value :  5.02916e-06
 Reference value :  5.03534e-06
 Reference value :  5.04841e-06
 Reference value :  5.05879e-06
 Reference value :  5.07752e-06
 Reference value :  5.10028e-06
 Reference value :  5.11766e-06
 Reference value :  5.18883e-06
 Reference value :  5.23789e-06
 Reference value :  5.25011e-06
 Reference value :  5.25020e-06
 Reference value :  5.25025e-06
 Reference value :  5.25054e-06
 Reference value :  5.25142e-06
 Reference value :  5.25192e-06
 Reference value :  5.25308e-06
 Reference value :  5.25378e-06
 Reference value :  5.25432e-06
 Reference value :  5.25552e-06
 Reference value :  5.25629e-06
 Reference value :  5.25876e-06
 Reference value :  5.26411e-06
 Reference value :  5.26967e-06
 Reference value :  5.33983e-06
 Reference value :  5.50000e-06
 Reference value :  5.50003e-06
 Reference value :  5.50010e-06
 Reference value :  5.50011e-06
 Reference value :  5.50016e-06
 Reference value :  5.50035e-06
 Reference value :  5.50093e-06
 Reference value :  5.50145e-06
 Reference value :  5.50196e-06
 Reference value :  5.50243e-06
 Reference value :  5.50347e-06
 Reference value :  5.50471e-06
 Reference value :  5.50560e-06
 Reference value :  5.50648e-06
 Reference value :  5.50743e-06
 Reference value :  5.50836e-06
 Reference value :  5.51026e-06
 Reference value :  5.51137e-06
 Reference value :  5.51508e-06
 Reference value :  5.52554e-06
 Reference value :  5.75010e-06
 Reference value :  5.75021e-06
 Reference value :  5.75039e-06
 Reference value :  5.75074e-06
 Reference value :  5.75147e-06
 Reference value :  5.75245e-06
 Reference value :  5.75382e-06
 Reference value :  5.75440e-06
 Reference value :  5.75567e-06
 Reference value :  5.75643e-06
 Reference value :  5.75808e-06
 Reference value :  5.75904e-06
 Reference value :  5.76405e-06
 Reference value :  5.78092e-06
 Reference value :  5.85138e-06
 Reference value :  6.00000e-06
 Reference value :  6.00001e-06
 Reference value :  6.00007e-06
 Reference value :  6.00012e-06
 Reference value :  6.00022e-06
 Reference value :  6.00093e-06
 Reference value :  6.00245e-06
 Reference value :  6.00350e-06
 Reference value :  6.00459e-06
 Reference value :  6.00583e-06
 Reference value :  6.00731e-06
 Reference value :  6.00816e-06
 Reference value :  6.01066e-06
 Reference value :  6.01293e-06
 Reference value :  6.01377e-06
 Reference value :  6.01552e-06
 Reference value :  6.01745e-06
 Reference value :  6.01871e-06
 Reference value :  6.02183e-06
 Reference value :  6.02920e-06
 Reference value :  6.03380e-06
 Reference value :  6.04479e-06
 Reference value :  6.06101e-06
 Reference value :  6.08973e-06
 Reference value :  6.15054e-06
 Reference value :  6.17817e-06
 Reference value :  6.20956e-06
 Reference value :  6.23946e-06
 Reference value :  6.25010e-06
 Reference value :  6.25017e-06
 Reference value :  6.25022e-06
 Reference value :  6.25032e-06
 Reference value :  6.25054e-06
 Reference value :  6.25097e-06
 Reference value :  6.25143e-06
 Reference value :  6.25241e-06
 Reference value :  6.25379e-06
 Reference value :  6.25495e-06
 Reference value :  6.25632e-06
 Reference value :  6.26095e-06
 Reference value :  6.26996e-06
 Reference value :  6.34274e-06
 Reference value :  6.50000e-06
 Reference value :  6.50003e-06
 Reference value :  6.50010e-06
 Reference value :  6.50022e-06
 Reference value :  6.50059e-06
 Reference value :  6.50145e-06
 Reference value :  6.50196e-06
 Reference value :  6.50243e-06
 Reference value :  6.50347e-06
 Reference value :  6.50405e-06
 Reference value :  6.50560e-06
 Reference value :  6.50648e-06
 Reference value :  6.50743e-06
 Reference value :  6.50836e-06
 Reference value :  6.50928e-06
 Reference value :  6.51137e-06
 Reference value :  6.52551e-06
 Reference value :  6.55909e-06
 Reference value :  6.75010e-06
 Reference value :  6.75013e-06
 Reference value :  6.75021e-06
 Reference value :  6.75026e-06
 Reference value :  6.75039e-06
 Reference value :  6.75099e-06
 Reference value :  6.75194e-06
 Reference value :  6.75311e-06
 Reference value :  6.75440e-06
 Reference value :  6.75567e-06
 Reference value :  6.75643e-06
 Reference value :  6.75808e-06
 Reference value :  6.76025e-06
 Reference value :  6.76405e-06
 Reference value :  6.77287e-06
 Reference value :  6.79476e-06
 Reference value :  6.85138e-06
 Reference value :  7.00000e-06
 Reference value :  7.00003e-06
 Reference value :  7.00010e-06
 Reference value :  7.00012e-06
 Reference value :  7.00035e-06
 Reference value :  7.00093e-06
 Reference value :  7.00196e-06
 Reference value :  7.00245e-06
 Reference value :  7.00297e-06
 Reference value :  7.00350e-06
 Reference value :  7.00459e-06
 Reference value :  7.00583e-06
 Reference value :  7.00731e-06
 Reference value :  7.00970e-06
 Reference value :  7.01066e-06
 Reference value :  7.01175e-06
 Reference value :  7.01294e-06
 Reference value :  7.01378e-06
 Reference value :  7.01552e-06
 Reference value :  7.01642e-06
 Reference value :  7.01861e-06
 Reference value :  7.02400e-06
 Reference value :  7.02830e-06
 Reference value :  7.03285e-06
 Reference value :  7.03675e-06
 Reference value :  7.04509e-06
 Reference value :  7.05865e-06
 Reference value :  7.09387e-06
 Reference value :  7.25010e-06
 Reference value :  7.25013e-06
 Reference value :  7.25021e-06
 Reference value :  7.25032e-06
 Reference value :  7.25054e-06
 Reference value :  7.25097e-06
 Reference value :  7.25192e-06
 Reference value :  7.25308e-06
 Reference value :  7.25380e-06
 Reference value :  7.25434e-06
 Reference value :  7.25555e-06
 Reference value :  7.25632e-06
 Reference value :  7.25881e-06
 Reference value :  7.26423e-06
 Reference value :  7.30109e-06
 Reference value :  7.34082e-06
 Reference value :  7.50000e-06
 Reference value :  7.50003e-06
 Reference value :  7.50010e-06
 Reference value :  7.50016e-06
 Reference value :  7.50035e-06
 Reference value :  7.50093e-06
 Reference value :  7.50245e-06
 Reference value :  7.50410e-06
 Reference value :  7.50641e-06
 Reference value :  7.50828e-06
 Reference value :  7.51020e-06
 Reference value :  7.51486e-06
 Reference value :  7.54276e-06
 Reference value :  7.75010e-06
 Reference value :  7.75013e-06
 Reference value :  7.75020e-06
 Reference value :  7.75025e-06
 Reference value :  7.75039e-06
 Reference value :  7.75074e-06
 Reference value :  7.75147e-06
 Reference value :  7.75194e-06
 Reference value :  7.75382e-06
 Reference value :  7.75503e-06
 Reference value :  7.75643e-06
 Reference value :  7.75889e-06
 Reference value :  7.77068e-06
 Reference value :  7.80548e-06
 Reference value :  7.94069e-06
 Reference value :  8.00001e-06
 Reference value :  8.00010e-06
 Reference value :  8.00016e-06
 Reference value :  8.00035e-06
 Reference value :  8.00145e-06
 Reference value :  8.00245e-06
 Reference value :  8.00349e-06
 Reference value :  8.00466e-06
 Reference value :  8.00588e-06
 Reference value :  8.00739e-06
 Reference value :  8.00899e-06
 Reference value :  8.01313e-06
 Reference value :  8.02573e-06
 Reference value :  8.14294e-06
 Reference value :  8.25013e-06
 Reference value :  8.25020e-06
 Reference value :  8.25026e-06
 Reference value :  8.25060e-06
 Reference value :  8.25160e-06
 Reference value :  8.25256e-06
 Reference value :  8.25404e-06
 Reference value :  8.25596e-06
 Reference value :  8.25853e-06
 Reference value :  8.26795e-06
 Reference value :  8.33502e-06
 Reference value :  8.50000e-06
No. of Data Rows : 1260
ngspice-44 done
