
Note: Compatibility modes selected: hs a


Circuit: ** sch_path: /home/ece/cace/sar-adc-using-sky130-pdk/runs/run_2025-09-13_01-40-07/parameters/dnl/run_1/sar_output_dnl.sch

option SCALE: Scale is set to 1e-06 for instance and model parameters
option SCALE: Scale is set to 1e-06 for instance and model parameters
option SCALE: Scale is set to 1e-06 for instance and model parameters
option SCALE: Scale is set to 1e-06 for instance and model parameters
Doing analysis at TEMP = 27.000000 and TNOM = 27.000000

Using KLU as Direct Linear Solver
Operating point simulation skipped by 'uic',
  now using transient initial conditions.
 Reference value :  1.00000e-12
 Reference value :  1.19600e-12
 Reference value :  4.40537e-12
 Reference value :  1.34683e-11
 Reference value :  1.00000e-10
 Reference value :  1.14437e-10
 Reference value :  2.49187e-10
 Reference value :  6.44238e-10
 Reference value :  1.34476e-09
 Reference value :  2.52060e-09
 Reference value :  4.21084e-09
 Reference value :  6.08550e-09
 Reference value :  7.78656e-09
 Reference value :  9.19806e-09
 Reference value :  1.11877e-08
 Reference value :  1.36195e-08
 Reference value :  1.45712e-08
 Reference value :  1.62792e-08
 Reference value :  1.93565e-08
 Reference value :  2.61169e-08
 Reference value :  3.38749e-08
 Reference value :  5.24049e-08
 Reference value :  1.34987e-07
 Reference value :  2.50110e-07
 Reference value :  2.50170e-07
 Reference value :  2.50223e-07
 Reference value :  2.50313e-07
 Reference value :  2.50547e-07
 Reference value :  2.51450e-07
 Reference value :  2.51921e-07
 Reference value :  2.53080e-07
 Reference value :  2.54552e-07
 Reference value :  2.56012e-07
 Reference value :  2.59266e-07
 Reference value :  2.67348e-07
 Reference value :  3.04898e-07
 Reference value :  4.91776e-07
 Reference value :  5.00030e-07
 Reference value :  5.00124e-07
 Reference value :  5.00348e-07
 Reference value :  5.01299e-07
 Reference value :  5.02238e-07
 Reference value :  5.04003e-07
 Reference value :  5.05395e-07
 Reference value :  5.09178e-07
 Reference value :  5.13349e-07
 Reference value :  5.16416e-07
 Reference value :  5.27208e-07
 Reference value :  5.88697e-07
 Reference value :  6.09974e-07
 Reference value :  6.25630e-07
 Reference value :  6.36410e-07
 Reference value :  6.56941e-07
 Reference value :  6.86298e-07
 Reference value :  7.50100e-07
 Reference value :  7.50130e-07
 Reference value :  7.50208e-07
 Reference value :  7.50448e-07
 Reference value :  7.51540e-07
 Reference value :  7.52578e-07
 Reference value :  7.54701e-07
 Reference value :  7.57009e-07
 Reference value :  7.61295e-07
 Reference value :  7.75126e-07
 Reference value :  8.20962e-07
 Reference value :  1.00000e-06
 Reference value :  1.00007e-06
 Reference value :  1.00012e-06
 Reference value :  1.00035e-06
 Reference value :  1.00130e-06
 Reference value :  1.00224e-06
 Reference value :  1.00404e-06
 Reference value :  1.00458e-06
 Reference value :  1.00583e-06
 Reference value :  1.00711e-06
 Reference value :  1.01046e-06
 Reference value :  1.01254e-06
 Reference value :  1.01377e-06
 Reference value :  1.01611e-06
 Reference value :  1.01833e-06
 Reference value :  1.02078e-06
 Reference value :  1.02646e-06
 Reference value :  1.06410e-06
 Reference value :  1.07640e-06
 Reference value :  1.09449e-06
 Reference value :  1.10936e-06
 Reference value :  1.14782e-06
 Reference value :  1.25010e-06
 Reference value :  1.25013e-06
 Reference value :  1.25021e-06
 Reference value :  1.25032e-06
 Reference value :  1.25106e-06
 Reference value :  1.25204e-06
 Reference value :  1.25407e-06
 Reference value :  1.25538e-06
 Reference value :  1.25695e-06
 Reference value :  1.26190e-06
 Reference value :  1.30025e-06
 Reference value :  1.50001e-06
 Reference value :  1.50010e-06
 Reference value :  1.50022e-06
 Reference value :  1.50086e-06
 Reference value :  1.50224e-06
 Reference value :  1.50399e-06
 Reference value :  1.50628e-06
 Reference value :  1.50924e-06
 Reference value :  1.51236e-06
 Reference value :  1.55039e-06
 Reference value :  1.75013e-06
 Reference value :  1.75022e-06
 Reference value :  1.75106e-06
 Reference value :  1.75257e-06
 Reference value :  1.75471e-06
 Reference value :  1.75698e-06
 Reference value :  1.76545e-06
 Reference value :  1.83217e-06
 Reference value :  2.00001e-06
 Reference value :  2.00011e-06
 Reference value :  2.00052e-06
 Reference value :  2.00176e-06
 Reference value :  2.00277e-06
 Reference value :  2.00458e-06
 Reference value :  2.00582e-06
 Reference value :  2.00800e-06
 Reference value :  2.01256e-06
 Reference value :  2.01401e-06
 Reference value :  2.01671e-06
 Reference value :  2.01909e-06
 Reference value :  2.02345e-06
 Reference value :  2.03417e-06
 Reference value :  2.08399e-06
 Reference value :  2.25010e-06
 Reference value :  2.25013e-06
 Reference value :  2.25022e-06
 Reference value :  2.25070e-06
 Reference value :  2.25202e-06
 Reference value :  2.25405e-06
 Reference value :  2.25534e-06
 Reference value :  2.25778e-06
 Reference value :  2.27066e-06
 Reference value :  2.38977e-06
 Reference value :  2.50007e-06
 Reference value :  2.50016e-06
 Reference value :  2.50052e-06
 Reference value :  2.50130e-06
 Reference value :  2.50224e-06
 Reference value :  2.50400e-06
 Reference value :  2.50533e-06
 Reference value :  2.50730e-06
 Reference value :  2.50925e-06
 Reference value :  2.51123e-06
 Reference value :  2.51363e-06
 Reference value :  2.55043e-06
 Reference value :  2.75011e-06
 Reference value :  2.75020e-06
 Reference value :  2.75032e-06
 Reference value :  2.75153e-06
 Reference value :  2.75328e-06
 Reference value :  2.75470e-06
 Reference value :  2.75696e-06
 Reference value :  2.76191e-06
 Reference value :  2.78198e-06
 Reference value :  3.00000e-06
 Reference value :  3.00007e-06
 Reference value :  3.00016e-06
 Reference value :  3.00086e-06
 Reference value :  3.00176e-06
 Reference value :  3.00277e-06
 Reference value :  3.00458e-06
 Reference value :  3.00582e-06
 Reference value :  3.00711e-06
 Reference value :  3.01062e-06
 Reference value :  3.01402e-06
 Reference value :  3.01671e-06
 Reference value :  3.01909e-06
 Reference value :  3.02344e-06
 Reference value :  3.04281e-06
 Reference value :  3.10969e-06
 Reference value :  3.17644e-06
 Reference value :  3.25013e-06
 Reference value :  3.25022e-06
 Reference value :  3.25070e-06
 Reference value :  3.25202e-06
 Reference value :  3.25326e-06
 Reference value :  3.25466e-06
 Reference value :  3.25687e-06
 Reference value :  3.26506e-06
 Reference value :  3.33152e-06
 Reference value :  3.50007e-06
 Reference value :  3.50016e-06
 Reference value :  3.50086e-06
 Reference value :  3.50176e-06
 Reference value :  3.50277e-06
 Reference value :  3.50464e-06
 Reference value :  3.50730e-06
 Reference value :  3.50925e-06
 Reference value :  3.51123e-06
 Reference value :  3.51364e-06
 Reference value :  3.53096e-06
 Reference value :  3.75010e-06
 Reference value :  3.75017e-06
 Reference value :  3.75022e-06
 Reference value :  3.75045e-06
 Reference value :  3.75153e-06
 Reference value :  3.75256e-06
 Reference value :  3.75405e-06
 Reference value :  3.75538e-06
 Reference value :  3.75696e-06
 Reference value :  3.76190e-06
 Reference value :  3.78189e-06
 Reference value :  3.83106e-06
 Reference value :  4.00000e-06
 Reference value :  4.00003e-06
 Reference value :  4.00010e-06
 Reference value :  4.00012e-06
 Reference value :  4.00035e-06
 Reference value :  4.00130e-06
 Reference value :  4.00224e-06
 Reference value :  4.00340e-06
 Reference value :  4.00458e-06
 Reference value :  4.00582e-06
 Reference value :  4.00643e-06
 Reference value :  4.00800e-06
 Reference value :  4.01062e-06
 Reference value :  4.01402e-06
 Reference value :  4.01537e-06
 Reference value :  4.01797e-06
 Reference value :  4.01908e-06
 Reference value :  4.02162e-06
 Reference value :  4.02867e-06
 Reference value :  4.04098e-06
 Reference value :  4.05805e-06
 Reference value :  4.06995e-06
 Reference value :  4.08201e-06
 Reference value :  4.10790e-06
 Reference value :  4.17644e-06
 Reference value :  4.25011e-06
 Reference value :  4.25020e-06
 Reference value :  4.25026e-06
 Reference value :  4.25070e-06
 Reference value :  4.25153e-06
 Reference value :  4.25256e-06
 Reference value :  4.25402e-06
 Reference value :  4.25538e-06
 Reference value :  4.25814e-06
 Reference value :  4.26605e-06
 Reference value :  4.30291e-06
 Reference value :  4.37865e-06
 Reference value :  4.50000e-06
 Reference value :  4.50007e-06
 Reference value :  4.50012e-06
 Reference value :  4.50035e-06
 Reference value :  4.50130e-06
 Reference value :  4.50221e-06
 Reference value :  4.50406e-06
 Reference value :  4.50561e-06
 Reference value :  4.50754e-06
 Reference value :  4.50947e-06
 Reference value :  4.51159e-06
 Reference value :  4.51413e-06
 Reference value :  4.52842e-06
 Reference value :  4.53493e-06
 Reference value :  4.56415e-06
 Reference value :  4.68548e-06
 Reference value :  4.75011e-06
 Reference value :  4.75020e-06
 Reference value :  4.75032e-06
 Reference value :  4.75105e-06
 Reference value :  4.75202e-06
 Reference value :  4.75404e-06
 Reference value :  4.75465e-06
 Reference value :  4.75606e-06
 Reference value :  4.75786e-06
 Reference value :  4.76525e-06
 Reference value :  4.79968e-06
 Reference value :  4.99938e-06
 Reference value :  5.00001e-06
 Reference value :  5.00010e-06
 Reference value :  5.00016e-06
 Reference value :  5.00052e-06
 Reference value :  5.00130e-06
 Reference value :  5.00224e-06
 Reference value :  5.00341e-06
 Reference value :  5.00458e-06
 Reference value :  5.00582e-06
 Reference value :  5.00643e-06
 Reference value :  5.00900e-06
 Reference value :  5.01402e-06
 Reference value :  5.01537e-06
 Reference value :  5.01797e-06
 Reference value :  5.01908e-06
 Reference value :  5.02343e-06
 Reference value :  5.03295e-06
 Reference value :  5.04092e-06
 Reference value :  5.05257e-06
 Reference value :  5.06979e-06
 Reference value :  5.15116e-06
 Reference value :  5.25013e-06
 Reference value :  5.25020e-06
 Reference value :  5.25026e-06
 Reference value :  5.25070e-06
 Reference value :  5.25152e-06
 Reference value :  5.25254e-06
 Reference value :  5.25401e-06
 Reference value :  5.25532e-06
 Reference value :  5.25691e-06
 Reference value :  5.25959e-06
 Reference value :  5.27109e-06
 Reference value :  5.33150e-06
 Reference value :  5.50000e-06
 Reference value :  5.50003e-06
 Reference value :  5.50011e-06
 Reference value :  5.50022e-06
 Reference value :  5.50052e-06
 Reference value :  5.50130e-06
 Reference value :  5.50221e-06
 Reference value :  5.50332e-06
 Reference value :  5.50485e-06
 Reference value :  5.50674e-06
 Reference value :  5.50753e-06
 Reference value :  5.50946e-06
 Reference value :  5.51277e-06
 Reference value :  5.52837e-06
 Reference value :  5.56689e-06
 Reference value :  5.75011e-06
 Reference value :  5.75020e-06
 Reference value :  5.75045e-06
 Reference value :  5.75152e-06
 Reference value :  5.75254e-06
 Reference value :  5.75403e-06
 Reference value :  5.75604e-06
 Reference value :  5.75883e-06
 Reference value :  5.76547e-06
 Reference value :  5.78387e-06
 Reference value :  5.85822e-06
 Reference value :  6.00001e-06
 Reference value :  6.00007e-06
 Reference value :  6.00011e-06
 Reference value :  6.00022e-06
 Reference value :  6.00052e-06
 Reference value :  6.00130e-06
 Reference value :  6.00224e-06
 Reference value :  6.00340e-06
 Reference value :  6.00403e-06
 Reference value :  6.00457e-06
 Reference value :  6.00583e-06
 Reference value :  6.00644e-06
 Reference value :  6.00802e-06
 Reference value :  6.01047e-06
 Reference value :  6.01146e-06
 Reference value :  6.01379e-06
 Reference value :  6.01624e-06
 Reference value :  6.01855e-06
 Reference value :  6.02132e-06
 Reference value :  6.02817e-06
 Reference value :  6.04268e-06
 Reference value :  6.06312e-06
 Reference value :  6.13012e-06
 Reference value :  6.25010e-06
 Reference value :  6.25017e-06
 Reference value :  6.25022e-06
 Reference value :  6.25045e-06
 Reference value :  6.25105e-06
 Reference value :  6.25202e-06
 Reference value :  6.25403e-06
 Reference value :  6.25462e-06
 Reference value :  6.25682e-06
 Reference value :  6.26491e-06
 Reference value :  6.33050e-06
 Reference value :  6.50003e-06
 Reference value :  6.50011e-06
 Reference value :  6.50022e-06
 Reference value :  6.50052e-06
 Reference value :  6.50130e-06
 Reference value :  6.50221e-06
 Reference value :  6.50332e-06
 Reference value :  6.50486e-06
 Reference value :  6.50674e-06
 Reference value :  6.50754e-06
 Reference value :  6.51056e-06
 Reference value :  6.51277e-06
 Reference value :  6.54207e-06
 Reference value :  6.75011e-06
 Reference value :  6.75020e-06
 Reference value :  6.75032e-06
 Reference value :  6.75105e-06
 Reference value :  6.75201e-06
 Reference value :  6.75325e-06
 Reference value :  6.75464e-06
 Reference value :  6.75694e-06
 Reference value :  6.75882e-06
 Reference value :  6.76315e-06
 Reference value :  6.78373e-06
 Reference value :  6.91626e-06
 Reference value :  7.00003e-06
 Reference value :  7.00010e-06
 Reference value :  7.00016e-06
 Reference value :  7.00052e-06
 Reference value :  7.00130e-06
 Reference value :  7.00224e-06
 Reference value :  7.00340e-06
 Reference value :  7.00457e-06
 Reference value :  7.00583e-06
 Reference value :  7.00712e-06
 Reference value :  7.01046e-06
 Reference value :  7.01146e-06
 Reference value :  7.01379e-06
 Reference value :  7.01626e-06
 Reference value :  7.01980e-06
 Reference value :  7.02505e-06
 Reference value :  7.03966e-06
 Reference value :  7.10869e-06
 Reference value :  7.25011e-06
 Reference value :  7.25020e-06
 Reference value :  7.25026e-06
 Reference value :  7.25070e-06
 Reference value :  7.25203e-06
 Reference value :  7.25404e-06
 Reference value :  7.25533e-06
 Reference value :  7.25688e-06
 Reference value :  7.26509e-06
 Reference value :  7.38520e-06
 Reference value :  7.50003e-06
 Reference value :  7.50012e-06
 Reference value :  7.50052e-06
 Reference value :  7.50177e-06
 Reference value :  7.50332e-06
 Reference value :  7.50561e-06
 Reference value :  7.50754e-06
 Reference value :  7.51056e-06
 Reference value :  7.51412e-06
 Reference value :  7.56621e-06
 Reference value :  7.75011e-06
 Reference value :  7.75021e-06
 Reference value :  7.75032e-06
 Reference value :  7.75105e-06
 Reference value :  7.75201e-06
 Reference value :  7.75403e-06
 Reference value :  7.75531e-06
 Reference value :  7.75693e-06
 Reference value :  7.75881e-06
 Reference value :  7.76315e-06
 Reference value :  7.78371e-06
 Reference value :  8.00000e-06
 Reference value :  8.00007e-06
 Reference value :  8.00012e-06
 Reference value :  8.00035e-06
 Reference value :  8.00086e-06
 Reference value :  8.00130e-06
 Reference value :  8.00224e-06
 Reference value :  8.00340e-06
 Reference value :  8.00457e-06
 Reference value :  8.00583e-06
 Reference value :  8.00644e-06
 Reference value :  8.00802e-06
 Reference value :  8.01001e-06
 Reference value :  8.01171e-06
 Reference value :  8.01398e-06
 Reference value :  8.01874e-06
 Reference value :  8.02472e-06
 Reference value :  8.03687e-06
 Reference value :  8.05542e-06
 Reference value :  8.06776e-06
 Reference value :  8.09357e-06
 Reference value :  8.14596e-06
 Reference value :  8.21394e-06
 Reference value :  8.25013e-06
 Reference value :  8.25021e-06
 Reference value :  8.25032e-06
 Reference value :  8.25105e-06
 Reference value :  8.25203e-06
 Reference value :  8.25425e-06
 Reference value :  8.25614e-06
 Reference value :  8.25861e-06
 Reference value :  8.26294e-06
 Reference value :  8.28078e-06
 Reference value :  8.35783e-06
 Reference value :  8.50000e-06
 Reference value :  8.50000e-06
 Reference value :  8.50000e-06
 Reference value :  8.50001e-06
 Reference value :  8.50004e-06
 Reference value :  8.50010e-06
 Reference value :  8.50012e-06
 Reference value :  8.50018e-06
 Reference value :  8.50078e-06
 Reference value :  8.50190e-06
 Reference value :  8.50245e-06
 Reference value :  8.50369e-06
 Reference value :  8.50512e-06
 Reference value :  8.50570e-06
 Reference value :  8.50706e-06
 Reference value :  8.51132e-06
 Reference value :  8.52212e-06
 Reference value :  8.52878e-06
 Reference value :  8.53374e-06
 Reference value :  8.53743e-06
 Reference value :  8.53999e-06
 Reference value :  8.54203e-06
 Reference value :  8.54613e-06
 Reference value :  8.54925e-06
 Reference value :  8.55170e-06
 Reference value :  8.55964e-06
 Reference value :  8.57265e-06
 Reference value :  8.60224e-06
 Reference value :  8.66973e-06
 Reference value :  8.75010e-06
 Reference value :  8.75017e-06
 Reference value :  8.75022e-06
 Reference value :  8.75045e-06
 Reference value :  8.75105e-06
 Reference value :  8.75201e-06
 Reference value :  8.75326e-06
 Reference value :  8.75464e-06
 Reference value :  8.75600e-06
 Reference value :  8.75689e-06
 Reference value :  8.75955e-06
 Reference value :  8.77084e-06
 Reference value :  8.83105e-06
 Reference value :  9.00000e-06
 Reference value :  9.00007e-06
 Reference value :  9.00016e-06
 Reference value :  9.00052e-06
 Reference value :  9.00130e-06
 Reference value :  9.00224e-06
 Reference value :  9.00399e-06
 Reference value :  9.00535e-06
 Reference value :  9.00754e-06
 Reference value :  9.00909e-06
 Reference value :  9.01189e-06
 Reference value :  9.01329e-06
 Reference value :  9.01621e-06
 Reference value :  9.01995e-06
 Reference value :  9.03257e-06
 Reference value :  9.10001e-06
 Reference value :  9.25011e-06
 Reference value :  9.25021e-06
 Reference value :  9.25045e-06
 Reference value :  9.25152e-06
 Reference value :  9.25254e-06
 Reference value :  9.25402e-06
 Reference value :  9.25532e-06
 Reference value :  9.25784e-06
 Reference value :  9.26526e-06
 Reference value :  9.27965e-06
 Reference value :  9.28840e-06
 Reference value :  9.29443e-06
 Reference value :  9.30607e-06
 Reference value :  9.31849e-06
 Reference value :  9.34630e-06
 Reference value :  9.38304e-06
 Reference value :  9.50000e-06
 Reference value :  9.50007e-06
 Reference value :  9.50012e-06
 Reference value :  9.50035e-06
 Reference value :  9.50086e-06
 Reference value :  9.50130e-06
 Reference value :  9.50224e-06
 Reference value :  9.50341e-06
 Reference value :  9.50458e-06
 Reference value :  9.50583e-06
 Reference value :  9.50643e-06
 Reference value :  9.50800e-06
 Reference value :  9.51045e-06
 Reference value :  9.51143e-06
 Reference value :  9.51375e-06
 Reference value :  9.51603e-06
 Reference value :  9.51822e-06
 Reference value :  9.52066e-06
 Reference value :  9.52374e-06
 Reference value :  9.53501e-06
 Reference value :  9.57077e-06
 Reference value :  9.58036e-06
 Reference value :  9.59057e-06
 Reference value :  9.61723e-06
 Reference value :  9.70315e-06
 Reference value :  9.75013e-06
 Reference value :  9.75021e-06
 Reference value :  9.75032e-06
 Reference value :  9.75105e-06
 Reference value :  9.75203e-06
 Reference value :  9.75328e-06
 Reference value :  9.75467e-06
 Reference value :  9.75601e-06
 Reference value :  9.75782e-06
 Reference value :  9.76515e-06
 Reference value :  9.83024e-06
 Reference value :  1.00000e-05
 Reference value :  1.00001e-05
 Reference value :  1.00001e-05
 Reference value :  1.00005e-05
 Reference value :  1.00013e-05
 Reference value :  1.00022e-05
 Reference value :  1.00034e-05
 Reference value :  1.00046e-05
 Reference value :  1.00073e-05
 Reference value :  1.00093e-05
 Reference value :  1.00112e-05
 Reference value :  1.00162e-05
 Reference value :  1.00503e-05
 Reference value :  1.02501e-05
 Reference value :  1.02502e-05
 Reference value :  1.02503e-05
 Reference value :  1.02511e-05
 Reference value :  1.02520e-05
 Reference value :  1.02533e-05
 Reference value :  1.02547e-05
 Reference value :  1.02561e-05
 Reference value :  1.02597e-05
 Reference value :  1.02821e-05
 Reference value :  1.03847e-05
 Reference value :  1.05000e-05
 Reference value :  1.05001e-05
 Reference value :  1.05002e-05
 Reference value :  1.05005e-05
 Reference value :  1.05013e-05
 Reference value :  1.05022e-05
 Reference value :  1.05034e-05
 Reference value :  1.05046e-05
 Reference value :  1.05052e-05
 Reference value :  1.05058e-05
 Reference value :  1.05064e-05
 Reference value :  1.05080e-05
 Reference value :  1.05126e-05
 Reference value :  1.05140e-05
 Reference value :  1.05154e-05
 Reference value :  1.05180e-05
 Reference value :  1.05203e-05
 Reference value :  1.05253e-05
 Reference value :  1.05423e-05
 Reference value :  1.05823e-05
 Reference value :  1.07501e-05
 Reference value :  1.07501e-05
 Reference value :  1.07502e-05
 Reference value :  1.07503e-05
 Reference value :  1.07507e-05
 Reference value :  1.07515e-05
 Reference value :  1.07525e-05
 Reference value :  1.07540e-05
 Reference value :  1.07553e-05
 Reference value :  1.07569e-05
 Reference value :  1.07617e-05
 Reference value :  1.07984e-05
 Reference value :  1.10000e-05
 Reference value :  1.10001e-05
 Reference value :  1.10001e-05
 Reference value :  1.10003e-05
 Reference value :  1.10013e-05
 Reference value :  1.10022e-05
 Reference value :  1.10040e-05
 Reference value :  1.10053e-05
 Reference value :  1.10073e-05
 Reference value :  1.10093e-05
 Reference value :  1.10112e-05
 Reference value :  1.10162e-05
 Reference value :  1.10893e-05
 Reference value :  1.12501e-05
 Reference value :  1.12502e-05
 Reference value :  1.12503e-05
 Reference value :  1.12504e-05
 Reference value :  1.12511e-05
 Reference value :  1.12520e-05
 Reference value :  1.12541e-05
 Reference value :  1.12554e-05
 Reference value :  1.12579e-05
 Reference value :  1.12655e-05
 Reference value :  1.13310e-05
 Reference value :  1.15000e-05
 Reference value :  1.15000e-05
 Reference value :  1.15001e-05
 Reference value :  1.15001e-05
 Reference value :  1.15003e-05
 Reference value :  1.15009e-05
 Reference value :  1.15013e-05
 Reference value :  1.15022e-05
 Reference value :  1.15034e-05
 Reference value :  1.15046e-05
 Reference value :  1.15058e-05
 Reference value :  1.15071e-05
 Reference value :  1.15106e-05
 Reference value :  1.15140e-05
 Reference value :  1.15154e-05
 Reference value :  1.15180e-05
 Reference value :  1.15203e-05
 Reference value :  1.15253e-05
 Reference value :  1.15575e-05
 Reference value :  1.16095e-05
 Reference value :  1.17211e-05
 Reference value :  1.17501e-05
 Reference value :  1.17502e-05
 Reference value :  1.17504e-05
 Reference value :  1.17515e-05
 Reference value :  1.17525e-05
 Reference value :  1.17540e-05
 Reference value :  1.17553e-05
 Reference value :  1.17569e-05
 Reference value :  1.17617e-05
 Reference value :  1.17812e-05
 Reference value :  1.18862e-05
 Reference value :  1.20000e-05
 Reference value :  1.20001e-05
 Reference value :  1.20002e-05
 Reference value :  1.20005e-05
 Reference value :  1.20013e-05
 Reference value :  1.20022e-05
 Reference value :  1.20040e-05
 Reference value :  1.20046e-05
 Reference value :  1.20063e-05
 Reference value :  1.20083e-05
 Reference value :  1.20102e-05
 Reference value :  1.20124e-05
 Reference value :  1.20162e-05
 Reference value :  1.20893e-05
 Reference value :  1.22501e-05
 Reference value :  1.22502e-05
 Reference value :  1.22502e-05
 Reference value :  1.22504e-05
 Reference value :  1.22515e-05
 Reference value :  1.22526e-05
 Reference value :  1.22541e-05
 Reference value :  1.22547e-05
 Reference value :  1.22561e-05
 Reference value :  1.22597e-05
 Reference value :  1.22715e-05
 Reference value :  1.23310e-05
 Reference value :  1.25000e-05
 Reference value :  1.25001e-05
 Reference value :  1.25002e-05
 Reference value :  1.25009e-05
 Reference value :  1.25022e-05
 Reference value :  1.25034e-05
 Reference value :  1.25046e-05
 Reference value :  1.25058e-05
 Reference value :  1.25071e-05
 Reference value :  1.25106e-05
 Reference value :  1.25140e-05
 Reference value :  1.25167e-05
 Reference value :  1.25191e-05
 Reference value :  1.25234e-05
 Reference value :  1.25423e-05
 Reference value :  1.25588e-05
 Reference value :  1.25705e-05
 Reference value :  1.25894e-05
 Reference value :  1.26404e-05
 Reference value :  1.27501e-05
 Reference value :  1.27502e-05
 Reference value :  1.27507e-05
 Reference value :  1.27520e-05
 Reference value :  1.27540e-05
 Reference value :  1.27560e-05
 Reference value :  1.27599e-05
 Reference value :  1.28023e-05
 Reference value :  1.28663e-05
 Reference value :  1.29103e-05
 Reference value :  1.29804e-05
 Reference value :  1.30001e-05
 Reference value :  1.30001e-05
 Reference value :  1.30005e-05
 Reference value :  1.30013e-05
 Reference value :  1.30022e-05
 Reference value :  1.30040e-05
 Reference value :  1.30053e-05
 Reference value :  1.30073e-05
 Reference value :  1.30093e-05
 Reference value :  1.30112e-05
 Reference value :  1.30162e-05
 Reference value :  1.30893e-05
 Reference value :  1.32501e-05
 Reference value :  1.32502e-05
 Reference value :  1.32503e-05
 Reference value :  1.32511e-05
 Reference value :  1.32526e-05
 Reference value :  1.32547e-05
 Reference value :  1.32579e-05
 Reference value :  1.32997e-05
 Reference value :  1.35000e-05
 Reference value :  1.35002e-05
 Reference value :  1.35013e-05
 Reference value :  1.35022e-05
 Reference value :  1.35040e-05
 Reference value :  1.35052e-05
 Reference value :  1.35064e-05
 Reference value :  1.35126e-05
 Reference value :  1.35154e-05
 Reference value :  1.35191e-05
 Reference value :  1.35234e-05
 Reference value :  1.35286e-05
 Reference value :  1.35335e-05
 Reference value :  1.35428e-05
 Reference value :  1.35507e-05
 Reference value :  1.35616e-05
 Reference value :  1.35805e-05
 Reference value :  1.36534e-05
 Reference value :  1.37501e-05
 Reference value :  1.37502e-05
 Reference value :  1.37502e-05
 Reference value :  1.37504e-05
 Reference value :  1.37511e-05
 Reference value :  1.37520e-05
 Reference value :  1.37533e-05
 Reference value :  1.37546e-05
 Reference value :  1.37560e-05
 Reference value :  1.37569e-05
 Reference value :  1.37618e-05
 Reference value :  1.37990e-05
 Reference value :  1.39966e-05
 Reference value :  1.40000e-05
 Reference value :  1.40001e-05
 Reference value :  1.40002e-05
 Reference value :  1.40009e-05
 Reference value :  1.40018e-05
 Reference value :  1.40027e-05
 Reference value :  1.40041e-05
 Reference value :  1.40067e-05
 Reference value :  1.40075e-05
 Reference value :  1.40095e-05
 Reference value :  1.40116e-05
 Reference value :  1.40128e-05
 Reference value :  1.40207e-05
 Reference value :  1.40420e-05
 Reference value :  1.41148e-05
 Reference value :  1.42501e-05
 Reference value :  1.42501e-05
 Reference value :  1.42502e-05
 Reference value :  1.42503e-05
 Reference value :  1.42504e-05
 Reference value :  1.42511e-05
 Reference value :  1.42520e-05
 Reference value :  1.42533e-05
 Reference value :  1.42546e-05
 Reference value :  1.42560e-05
 Reference value :  1.42579e-05
 Reference value :  1.42599e-05
 Reference value :  1.42655e-05
 Reference value :  1.42839e-05
 Reference value :  1.44174e-05
 Reference value :  1.45000e-05
 Reference value :  1.45001e-05
 Reference value :  1.45003e-05
 Reference value :  1.45013e-05
 Reference value :  1.45022e-05
 Reference value :  1.45034e-05
 Reference value :  1.45046e-05
 Reference value :  1.45058e-05
 Reference value :  1.45071e-05
 Reference value :  1.45090e-05
 Reference value :  1.45115e-05
 Reference value :  1.45138e-05
 Reference value :  1.45162e-05
 Reference value :  1.45186e-05
 Reference value :  1.45213e-05
 Reference value :  1.45251e-05
 Reference value :  1.45344e-05
 Reference value :  1.45494e-05
 Reference value :  1.45659e-05
 Reference value :  1.46185e-05
 Reference value :  1.47218e-05
 Reference value :  1.47501e-05
 Reference value :  1.47502e-05
 Reference value :  1.47504e-05
 Reference value :  1.47515e-05
 Reference value :  1.47526e-05
 Reference value :  1.47540e-05
 Reference value :  1.47546e-05
 Reference value :  1.47560e-05
 Reference value :  1.47578e-05
 Reference value :  1.47651e-05
 Reference value :  1.47984e-05
 Reference value :  1.49946e-05
 Reference value :  1.50000e-05
 Reference value :  1.50001e-05
 Reference value :  1.50002e-05
 Reference value :  1.50005e-05
 Reference value :  1.50018e-05
 Reference value :  1.50027e-05
 Reference value :  1.50049e-05
 Reference value :  1.50067e-05
 Reference value :  1.50084e-05
 Reference value :  1.50106e-05
 Reference value :  1.50128e-05
 Reference value :  1.50208e-05
 Reference value :  1.51145e-05
 Reference value :  1.52501e-05
 Reference value :  1.52502e-05
 Reference value :  1.52507e-05
 Reference value :  1.52520e-05
 Reference value :  1.52540e-05
 Reference value :  1.52553e-05
 Reference value :  1.52578e-05
 Reference value :  1.52612e-05
 Reference value :  1.52751e-05
 Reference value :  1.53576e-05
 Reference value :  1.55013e-05
 Reference value :  1.55053e-05
 Reference value :  1.55077e-05
 Reference value :  1.55102e-05
 Reference value :  1.55127e-05
 Reference value :  1.55138e-05
 Reference value :  1.55159e-05
 Reference value :  1.55178e-05
 Reference value :  1.55200e-05
 Reference value :  1.55227e-05
 Reference value :  1.55325e-05
 Reference value :  1.55696e-05
 Reference value :  1.57474e-05
 Reference value :  1.57501e-05
 Reference value :  1.57502e-05
 Reference value :  1.57503e-05
 Reference value :  1.57511e-05
 Reference value :  1.57520e-05
 Reference value :  1.57540e-05
 Reference value :  1.57553e-05
 Reference value :  1.57568e-05
 Reference value :  1.57616e-05
 Reference value :  1.57982e-05
 Reference value :  1.60000e-05
 Reference value :  1.60001e-05
 Reference value :  1.60001e-05
 Reference value :  1.60003e-05
 Reference value :  1.60013e-05
 Reference value :  1.60022e-05
 Reference value :  1.60033e-05
 Reference value :  1.60049e-05
 Reference value :  1.60067e-05
 Reference value :  1.60075e-05
 Reference value :  1.60095e-05
 Reference value :  1.60116e-05
 Reference value :  1.60128e-05
 Reference value :  1.60207e-05
 Reference value :  1.60664e-05
 Reference value :  1.62501e-05
 Reference value :  1.62502e-05
 Reference value :  1.62503e-05
 Reference value :  1.62504e-05
 Reference value :  1.62510e-05
 Reference value :  1.62520e-05
 Reference value :  1.62533e-05
 Reference value :  1.62546e-05
 Reference value :  1.62560e-05
 Reference value :  1.62570e-05
 Reference value :  1.62588e-05
 Reference value :  1.62613e-05
 Reference value :  1.62655e-05
 Reference value :  1.62840e-05
 Reference value :  1.63590e-05
 Reference value :  1.65000e-05
 Reference value :  1.65001e-05
 Reference value :  1.65001e-05
 Reference value :  1.65002e-05
 Reference value :  1.65009e-05
 Reference value :  1.65013e-05
 Reference value :  1.65022e-05
 Reference value :  1.65034e-05
 Reference value :  1.65046e-05
 Reference value :  1.65058e-05
 Reference value :  1.65071e-05
 Reference value :  1.65100e-05
 Reference value :  1.65117e-05
 Reference value :  1.65163e-05
 Reference value :  1.65241e-05
 Reference value :  1.65323e-05
 Reference value :  1.65429e-05
 Reference value :  1.65534e-05
 Reference value :  1.65821e-05
 Reference value :  1.67102e-05
 Reference value :  1.67501e-05
 Reference value :  1.67502e-05
 Reference value :  1.67504e-05
 Reference value :  1.67520e-05
 Reference value :  1.67542e-05
 Reference value :  1.67585e-05
 Reference value :  1.67721e-05
 Reference value :  1.68552e-05
 Reference value :  1.70000e-05
 Reference value :  1.70000e-05
 Reference value :  1.70000e-05
 Reference value :  1.70000e-05
 Reference value :  1.70001e-05
 Reference value :  1.70001e-05
 Reference value :  1.70004e-05
 Reference value :  1.70013e-05
 Reference value :  1.70024e-05
 Reference value :  1.70037e-05
 Reference value :  1.70051e-05
 Reference value :  1.70057e-05
 Reference value :  1.70071e-05
 Reference value :  1.70113e-05
 Reference value :  1.70221e-05
 Reference value :  1.70288e-05
 Reference value :  1.70337e-05
 Reference value :  1.70374e-05
 Reference value :  1.70399e-05
 Reference value :  1.70420e-05
 Reference value :  1.70458e-05
 Reference value :  1.70482e-05
 Reference value :  1.70509e-05
 Reference value :  1.70602e-05
 Reference value :  1.70682e-05
 Reference value :  1.70884e-05
 Reference value :  1.71424e-05
 Reference value :  1.72067e-05
 Reference value :  1.72501e-05
 Reference value :  1.72502e-05
 Reference value :  1.72502e-05
 Reference value :  1.72503e-05
 Reference value :  1.72507e-05
 Reference value :  1.72515e-05
 Reference value :  1.72520e-05
 Reference value :  1.72533e-05
 Reference value :  1.72546e-05
 Reference value :  1.72560e-05
 Reference value :  1.72569e-05
 Reference value :  1.72595e-05
 Reference value :  1.72651e-05
 Reference value :  1.72814e-05
 Reference value :  1.73869e-05
 Reference value :  1.75000e-05
 Reference value :  1.75001e-05
 Reference value :  1.75001e-05
 Reference value :  1.75002e-05
 Reference value :  1.75005e-05
 Reference value :  1.75013e-05
 Reference value :  1.75022e-05
 Reference value :  1.75034e-05
 Reference value :  1.75046e-05
 Reference value :  1.75063e-05
 Reference value :  1.75091e-05
 Reference value :  1.75119e-05
 Reference value :  1.75133e-05
 Reference value :  1.75162e-05
 Reference value :  1.75222e-05
 Reference value :  1.76000e-05
 Reference value :  1.77501e-05
 Reference value :  1.77502e-05
 Reference value :  1.77503e-05
 Reference value :  1.77511e-05
 Reference value :  1.77520e-05
 Reference value :  1.77540e-05
 Reference value :  1.77553e-05
 Reference value :  1.77578e-05
 Reference value :  1.77710e-05
 Reference value :  1.77854e-05
 Reference value :  1.77929e-05
 Reference value :  1.77984e-05
 Reference value :  1.78091e-05
 Reference value :  1.78272e-05
 Reference value :  1.78471e-05
 Reference value :  1.78819e-05
 Reference value :  1.80009e-05
 Reference value :  1.80036e-05
 Reference value :  1.80053e-05
 Reference value :  1.80066e-05
 Reference value :  1.80080e-05
 Reference value :  1.80112e-05
 Reference value :  1.80133e-05
 Reference value :  1.80155e-05
 Reference value :  1.80175e-05
 Reference value :  1.80197e-05
 Reference value :  1.80221e-05
 Reference value :  1.80259e-05
 Reference value :  1.80563e-05
 Reference value :  1.80678e-05
 Reference value :  1.80773e-05
 Reference value :  1.80813e-05
 Reference value :  1.80893e-05
 Reference value :  1.81009e-05
 Reference value :  1.81332e-05
 Reference value :  1.82501e-05
 Reference value :  1.82502e-05
 Reference value :  1.82503e-05
 Reference value :  1.82507e-05
 Reference value :  1.82520e-05
 Reference value :  1.82540e-05
 Reference value :  1.82560e-05
 Reference value :  1.82595e-05
 Reference value :  1.83304e-05
 Reference value :  1.85000e-05
 Reference value :  1.85001e-05
 Reference value :  1.85005e-05
 Reference value :  1.85018e-05
 Reference value :  1.85028e-05
 Reference value :  1.85046e-05
 Reference value :  1.85073e-05
 Reference value :  1.85093e-05
 Reference value :  1.85124e-05
 Reference value :  1.85309e-05
 Reference value :  1.87501e-05
 Reference value :  1.87502e-05
 Reference value :  1.87502e-05
 Reference value :  1.87504e-05
 Reference value :  1.87515e-05
 Reference value :  1.87526e-05
 Reference value :  1.87541e-05
 Reference value :  1.87547e-05
 Reference value :  1.87561e-05
 Reference value :  1.87597e-05
 Reference value :  1.87821e-05
 Reference value :  1.90000e-05
 Reference value :  1.90001e-05
 Reference value :  1.90001e-05
 Reference value :  1.90005e-05
 Reference value :  1.90018e-05
 Reference value :  1.90034e-05
 Reference value :  1.90046e-05
 Reference value :  1.90058e-05
 Reference value :  1.90071e-05
 Reference value :  1.90126e-05
 Reference value :  1.90154e-05
 Reference value :  1.90191e-05
 Reference value :  1.90253e-05
 Reference value :  1.90823e-05
 Reference value :  1.92501e-05
 Reference value :  1.92503e-05
 Reference value :  1.92511e-05
 Reference value :  1.92520e-05
 Reference value :  1.92540e-05
 Reference value :  1.92553e-05
 Reference value :  1.92569e-05
 Reference value :  1.92650e-05
 Reference value :  1.93305e-05
 Reference value :  1.95000e-05
 Reference value :  1.95002e-05
 Reference value :  1.95012e-05
 Reference value :  1.95022e-05
 Reference value :  1.95039e-05
 Reference value :  1.95053e-05
 Reference value :  1.95075e-05
 Reference value :  1.95096e-05
 Reference value :  1.95120e-05
 Reference value :  1.95149e-05
 Reference value :  1.95384e-05
 Reference value :  1.97501e-05
 Reference value :  1.97502e-05
 Reference value :  1.97503e-05
 Reference value :  1.97515e-05
 Reference value :  1.97533e-05
 Reference value :  1.97546e-05
 Reference value :  1.97569e-05
 Reference value :  1.97711e-05
 Reference value :  1.99990e-05
 Reference value :  2.00001e-05
 Reference value :  2.00003e-05
 Reference value :  2.00013e-05
 Reference value :  2.00028e-05
 Reference value :  2.00046e-05
 Reference value :  2.00058e-05
 Reference value :  2.00080e-05
 Reference value :  2.00126e-05
 Reference value :  2.00154e-05
 Reference value :  2.00191e-05
 Reference value :  2.00234e-05
 Reference value :  2.00423e-05
 Reference value :  2.01107e-05
 Reference value :  2.02501e-05
 Reference value :  2.02502e-05
 Reference value :  2.02511e-05
 Reference value :  2.02525e-05
 Reference value :  2.02547e-05
 Reference value :  2.02578e-05
 Reference value :  2.02812e-05
 Reference value :  2.04978e-05
 Reference value :  2.05000e-05
 Reference value :  2.05001e-05
 Reference value :  2.05005e-05
 Reference value :  2.05013e-05
 Reference value :  2.05023e-05
 Reference value :  2.05034e-05
 Reference value :  2.05046e-05
 Reference value :  2.05063e-05
 Reference value :  2.05095e-05
 Reference value :  2.05116e-05
 Reference value :  2.05143e-05
 Reference value :  2.05404e-05
 Reference value :  2.07501e-05
 Reference value :  2.07502e-05
 Reference value :  2.07502e-05
 Reference value :  2.07507e-05
 Reference value :  2.07520e-05
 Reference value :  2.07540e-05
 Reference value :  2.07553e-05
 Reference value :  2.07578e-05
 Reference value :  2.07711e-05
 Reference value :  2.09980e-05
 Reference value :  2.10001e-05
 Reference value :  2.10001e-05
 Reference value :  2.10003e-05
 Reference value :  2.10009e-05
 Reference value :  2.10018e-05
 Reference value :  2.10034e-05
 Reference value :  2.10046e-05
 Reference value :  2.10058e-05
 Reference value :  2.10071e-05
 Reference value :  2.10106e-05
 Reference value :  2.10140e-05
 Reference value :  2.10167e-05
 Reference value :  2.10191e-05
 Reference value :  2.10253e-05
 Reference value :  2.10412e-05
 Reference value :  2.10558e-05
 Reference value :  2.10727e-05
 Reference value :  2.10928e-05
 Reference value :  2.11970e-05
 Reference value :  2.12501e-05
 Reference value :  2.12502e-05
 Reference value :  2.12503e-05
 Reference value :  2.12511e-05
 Reference value :  2.12525e-05
 Reference value :  2.12546e-05
 Reference value :  2.12579e-05
 Reference value :  2.12817e-05
 Reference value :  2.12923e-05
 Reference value :  2.13094e-05
 Reference value :  2.13558e-05
 Reference value :  2.15000e-05
 Reference value :  2.15001e-05
 Reference value :  2.15002e-05
 Reference value :  2.15009e-05
 Reference value :  2.15013e-05
 Reference value :  2.15022e-05
 Reference value :  2.15040e-05
 Reference value :  2.15053e-05
 Reference value :  2.15073e-05
 Reference value :  2.15093e-05
 Reference value :  2.15112e-05
 Reference value :  2.15136e-05
 Reference value :  2.15504e-05
 Reference value :  2.17501e-05
 Reference value :  2.17502e-05
 Reference value :  2.17503e-05
 Reference value :  2.17507e-05
 Reference value :  2.17520e-05
 Reference value :  2.17541e-05
 Reference value :  2.17554e-05
 Reference value :  2.17571e-05
 Reference value :  2.17620e-05
 Reference value :  2.17821e-05
 Reference value :  2.18846e-05
 Reference value :  2.20004e-05
 Reference value :  2.20016e-05
 Reference value :  2.20024e-05
 Reference value :  2.20035e-05
 Reference value :  2.20047e-05
 Reference value :  2.20059e-05
 Reference value :  2.20080e-05
 Reference value :  2.20127e-05
 Reference value :  2.20142e-05
 Reference value :  2.20166e-05
 Reference value :  2.20189e-05
 Reference value :  2.20231e-05
 Reference value :  2.20373e-05
 Reference value :  2.20463e-05
 Reference value :  2.20543e-05
 Reference value :  2.20699e-05
 Reference value :  2.21148e-05
 Reference value :  2.22501e-05
 Reference value :  2.22502e-05
 Reference value :  2.22503e-05
 Reference value :  2.22510e-05
 Reference value :  2.22520e-05
 Reference value :  2.22540e-05
 Reference value :  2.22553e-05
 Reference value :  2.22568e-05
 Reference value :  2.22594e-05
 Reference value :  2.22648e-05
 Reference value :  2.22980e-05
 Reference value :  2.25000e-05
 Reference value :  2.25001e-05
 Reference value :  2.25001e-05
 Reference value :  2.25003e-05
 Reference value :  2.25013e-05
 Reference value :  2.25022e-05
 Reference value :  2.25033e-05
 Reference value :  2.25049e-05
 Reference value :  2.25067e-05
 Reference value :  2.25075e-05
 Reference value :  2.25095e-05
 Reference value :  2.25116e-05
 Reference value :  2.25128e-05
 Reference value :  2.25207e-05
 Reference value :  2.25665e-05
 Reference value :  2.27501e-05
 Reference value :  2.27502e-05
 Reference value :  2.27502e-05
 Reference value :  2.27504e-05
 Reference value :  2.27511e-05
 Reference value :  2.27520e-05
 Reference value :  2.27533e-05
 Reference value :  2.27546e-05
 Reference value :  2.27560e-05
 Reference value :  2.27579e-05
 Reference value :  2.27600e-05
 Reference value :  2.27691e-05
 Reference value :  2.28221e-05
 Reference value :  2.30000e-05
 Reference value :  2.30013e-05
 Reference value :  2.30039e-05
 Reference value :  2.30052e-05
 Reference value :  2.30075e-05
 Reference value :  2.30098e-05
 Reference value :  2.30122e-05
 Reference value :  2.30146e-05
 Reference value :  2.30157e-05
 Reference value :  2.30191e-05
 Reference value :  2.30216e-05
 Reference value :  2.30323e-05
 Reference value :  2.30512e-05
 Reference value :  2.30802e-05
 Reference value :  2.31836e-05
 Reference value :  2.32502e-05
 Reference value :  2.32503e-05
 Reference value :  2.32511e-05
 Reference value :  2.32526e-05
 Reference value :  2.32546e-05
 Reference value :  2.32568e-05
 Reference value :  2.32811e-05
 Reference value :  2.35000e-05
 Reference value :  2.35001e-05
 Reference value :  2.35005e-05
 Reference value :  2.35018e-05
 Reference value :  2.35027e-05
 Reference value :  2.35041e-05
 Reference value :  2.35056e-05
 Reference value :  2.35075e-05
 Reference value :  2.35095e-05
 Reference value :  2.35128e-05
 Reference value :  2.35283e-05
 Reference value :  2.37120e-05
 Reference value :  2.37501e-05
 Reference value :  2.37502e-05
 Reference value :  2.37503e-05
 Reference value :  2.37507e-05
 Reference value :  2.37515e-05
 Reference value :  2.37520e-05
 Reference value :  2.37533e-05
 Reference value :  2.37546e-05
 Reference value :  2.37560e-05
 Reference value :  2.37579e-05
 Reference value :  2.37599e-05
 Reference value :  2.37655e-05
 Reference value :  2.37838e-05
 Reference value :  2.38579e-05
 Reference value :  2.40000e-05
 Reference value :  2.40001e-05
 Reference value :  2.40001e-05
 Reference value :  2.40003e-05
 Reference value :  2.40013e-05
 Reference value :  2.40022e-05
 Reference value :  2.40034e-05
 Reference value :  2.40046e-05
 Reference value :  2.40058e-05
 Reference value :  2.40071e-05
 Reference value :  2.40090e-05
 Reference value :  2.40115e-05
 Reference value :  2.40138e-05
 Reference value :  2.40163e-05
 Reference value :  2.40174e-05
 Reference value :  2.40198e-05
 Reference value :  2.40228e-05
 Reference value :  2.40281e-05
 Reference value :  2.40397e-05
 Reference value :  2.40737e-05
 Reference value :  2.42090e-05
 Reference value :  2.42501e-05
 Reference value :  2.42502e-05
 Reference value :  2.42503e-05
 Reference value :  2.42507e-05
 Reference value :  2.42515e-05
 Reference value :  2.42525e-05
 Reference value :  2.42540e-05
 Reference value :  2.42553e-05
 Reference value :  2.42568e-05
 Reference value :  2.42595e-05
 Reference value :  2.42703e-05
 Reference value :  2.42980e-05
 Reference value :  2.44998e-05
 Reference value :  2.45000e-05
 Reference value :  2.45001e-05
 Reference value :  2.45001e-05
 Reference value :  2.45002e-05
 Reference value :  2.45009e-05
 Reference value :  2.45013e-05
 Reference value :  2.45022e-05
 Reference value :  2.45033e-05
 Reference value :  2.45049e-05
 Reference value :  2.45067e-05
 Reference value :  2.45075e-05
 Reference value :  2.45095e-05
 Reference value :  2.45116e-05
 Reference value :  2.45141e-05
 Reference value :  2.45283e-05
 Reference value :  2.46145e-05
 Reference value :  2.47501e-05
 Reference value :  2.47502e-05
 Reference value :  2.47502e-05
 Reference value :  2.47503e-05
 Reference value :  2.47510e-05
 Reference value :  2.47520e-05
 Reference value :  2.47533e-05
 Reference value :  2.47546e-05
 Reference value :  2.47560e-05
 Reference value :  2.47578e-05
 Reference value :  2.47612e-05
 Reference value :  2.47751e-05
 Reference value :  2.48576e-05
 Reference value :  2.50001e-05
 Reference value :  2.50002e-05
 Reference value :  2.50009e-05
 Reference value :  2.50018e-05
 Reference value :  2.50022e-05
 Reference value :  2.50034e-05
 Reference value :  2.50046e-05
 Reference value :  2.50058e-05
 Reference value :  2.50064e-05
 Reference value :  2.50080e-05
 Reference value :  2.50100e-05
 Reference value :  2.50117e-05
 Reference value :  2.50156e-05
 Reference value :  2.50220e-05
 Reference value :  2.50252e-05
 Reference value :  2.50273e-05
 Reference value :  2.50323e-05
 Reference value :  2.50409e-05
 Reference value :  2.50671e-05
 Reference value :  2.52501e-05
 Reference value :  2.52502e-05
 Reference value :  2.52503e-05
 Reference value :  2.52515e-05
 Reference value :  2.52533e-05
 Reference value :  2.52573e-05
 Reference value :  2.52808e-05
 Reference value :  2.55000e-05
 Reference value :  2.55000e-05
 Reference value :  2.55000e-05
 Reference value :  2.55000e-05
 Reference value :  2.55001e-05
 Reference value :  2.55002e-05
 Reference value :  2.55008e-05
 Reference value :  2.55019e-05
 Reference value :  2.55037e-05
 Reference value :  2.55051e-05
 Reference value :  2.55057e-05
 Reference value :  2.55071e-05
 Reference value :  2.55221e-05
 Reference value :  2.55229e-05
 Reference value :  2.55274e-05
 Reference value :  2.55302e-05
 Reference value :  2.55348e-05
 Reference value :  2.55382e-05
 Reference value :  2.55410e-05
 Reference value :  2.55449e-05
 Reference value :  2.55516e-05
 Reference value :  2.55675e-05
 Reference value :  2.56220e-05
 Reference value :  2.57501e-05
 Reference value :  2.57502e-05
 Reference value :  2.57507e-05
 Reference value :  2.57520e-05
 Reference value :  2.57541e-05
 Reference value :  2.57553e-05
 Reference value :  2.57569e-05
 Reference value :  2.57618e-05
 Reference value :  2.57813e-05
 Reference value :  2.58844e-05
 Reference value :  2.60000e-05
 Reference value :  2.60001e-05
 Reference value :  2.60001e-05
 Reference value :  2.60003e-05
 Reference value :  2.60009e-05
 Reference value :  2.60018e-05
 Reference value :  2.60028e-05
 Reference value :  2.60040e-05
 Reference value :  2.60053e-05
 Reference value :  2.60089e-05
 Reference value :  2.60118e-05
 Reference value :  2.60150e-05
 Reference value :  2.60165e-05
 Reference value :  2.60229e-05
 Reference value :  2.60446e-05
 Reference value :  2.61695e-05
 Reference value :  2.62501e-05
 Reference value :  2.62502e-05
 Reference value :  2.62503e-05
 Reference value :  2.62504e-05
 Reference value :  2.62511e-05
 Reference value :  2.62520e-05
 Reference value :  2.62533e-05
 Reference value :  2.62546e-05
 Reference value :  2.62560e-05
 Reference value :  2.62578e-05
 Reference value :  2.62653e-05
 Reference value :  2.62798e-05
 Reference value :  2.62990e-05
 Reference value :  2.63052e-05
 Reference value :  2.63175e-05
 Reference value :  2.63392e-05
 Reference value :  2.63713e-05
 Reference value :  2.64735e-05
 Reference value :  2.65005e-05
 Reference value :  2.65019e-05
 Reference value :  2.65036e-05
 Reference value :  2.65049e-05
 Reference value :  2.65061e-05
 Reference value :  2.65094e-05
 Reference value :  2.65130e-05
 Reference value :  2.65151e-05
 Reference value :  2.65181e-05
 Reference value :  2.65215e-05
 Reference value :  2.65342e-05
 Reference value :  2.65691e-05
 Reference value :  2.65869e-05
 Reference value :  2.66084e-05
 Reference value :  2.67263e-05
 Reference value :  2.67502e-05
 Reference value :  2.67503e-05
 Reference value :  2.67510e-05
 Reference value :  2.67525e-05
 Reference value :  2.67546e-05
 Reference value :  2.67568e-05
 Reference value :  2.67701e-05
 Reference value :  2.69999e-05
 Reference value :  2.70000e-05
 Reference value :  2.70001e-05
 Reference value :  2.70003e-05
 Reference value :  2.70018e-05
 Reference value :  2.70034e-05
 Reference value :  2.70046e-05
 Reference value :  2.70074e-05
 Reference value :  2.70106e-05
 Reference value :  2.70130e-05
 Reference value :  2.70283e-05
 Reference value :  2.72501e-05
 Reference value :  2.72502e-05
 Reference value :  2.72503e-05
 Reference value :  2.72507e-05
 Reference value :  2.72515e-05
 Reference value :  2.72520e-05
 Reference value :  2.72540e-05
 Reference value :  2.72553e-05
 Reference value :  2.72579e-05
 Reference value :  2.72819e-05
 Reference value :  2.74964e-05
 Reference value :  2.75000e-05
 Reference value :  2.75001e-05
 Reference value :  2.75002e-05
 Reference value :  2.75009e-05
 Reference value :  2.75013e-05
 Reference value :  2.75022e-05
 Reference value :  2.75034e-05
 Reference value :  2.75046e-05
 Reference value :  2.75058e-05
 Reference value :  2.75080e-05
 Reference value :  2.75140e-05
 Reference value :  2.75180e-05
 Reference value :  2.75203e-05
 Reference value :  2.75425e-05
 Reference value :  2.77501e-05
 Reference value :  2.77502e-05
 Reference value :  2.77507e-05
 Reference value :  2.77520e-05
 Reference value :  2.77540e-05
 Reference value :  2.77560e-05
 Reference value :  2.77617e-05
 Reference value :  2.78863e-05
 Reference value :  2.80000e-05
 Reference value :  2.80002e-05
 Reference value :  2.80012e-05
 Reference value :  2.80027e-05
 Reference value :  2.80046e-05
 Reference value :  2.80064e-05
 Reference value :  2.80097e-05
 Reference value :  2.80134e-05
 Reference value :  2.80278e-05
 Reference value :  2.81630e-05
 Reference value :  2.82501e-05
 Reference value :  2.82502e-05
 Reference value :  2.82504e-05
 Reference value :  2.82515e-05
 Reference value :  2.82525e-05
 Reference value :  2.82540e-05
 Reference value :  2.82553e-05
 Reference value :  2.82569e-05
 Reference value :  2.82619e-05
 Reference value :  2.82819e-05
 Reference value :  2.84992e-05
 Reference value :  2.85000e-05
 Reference value :  2.85001e-05
 Reference value :  2.85002e-05
 Reference value :  2.85009e-05
 Reference value :  2.85018e-05
 Reference value :  2.85028e-05
 Reference value :  2.85046e-05
 Reference value :  2.85058e-05
 Reference value :  2.85071e-05
 Reference value :  2.85106e-05
 Reference value :  2.85140e-05
 Reference value :  2.85167e-05
 Reference value :  2.85191e-05
 Reference value :  2.85216e-05
 Reference value :  2.85285e-05
 Reference value :  2.85578e-05
 Reference value :  2.86123e-05
 Reference value :  2.86893e-05
 Reference value :  2.87501e-05
 Reference value :  2.87502e-05
 Reference value :  2.87503e-05
 Reference value :  2.87507e-05
 Reference value :  2.87515e-05
 Reference value :  2.87520e-05
 Reference value :  2.87533e-05
 Reference value :  2.87547e-05
 Reference value :  2.87569e-05
 Reference value :  2.87617e-05
 Reference value :  2.87812e-05
 Reference value :  2.89978e-05
 Reference value :  2.90000e-05
 Reference value :  2.90001e-05
 Reference value :  2.90004e-05
 Reference value :  2.90013e-05
 Reference value :  2.90023e-05
 Reference value :  2.90034e-05
 Reference value :  2.90046e-05
 Reference value :  2.90062e-05
 Reference value :  2.90085e-05
 Reference value :  2.90105e-05
 Reference value :  2.90129e-05
 Reference value :  2.90210e-05
 Reference value :  2.90404e-05
 Reference value :  2.91868e-05
 Reference value :  2.92501e-05
 Reference value :  2.92502e-05
 Reference value :  2.92503e-05
 Reference value :  2.92511e-05
 Reference value :  2.92520e-05
 Reference value :  2.92540e-05
 Reference value :  2.92546e-05
 Reference value :  2.92569e-05
 Reference value :  2.92654e-05
 Reference value :  2.93316e-05
 Reference value :  2.95000e-05
 Reference value :  2.95001e-05
 Reference value :  2.95002e-05
 Reference value :  2.95005e-05
 Reference value :  2.95013e-05
 Reference value :  2.95022e-05
 Reference value :  2.95040e-05
 Reference value :  2.95052e-05
 Reference value :  2.95064e-05
 Reference value :  2.95090e-05
 Reference value :  2.95140e-05
 Reference value :  2.95167e-05
 Reference value :  2.95191e-05
 Reference value :  2.95234e-05
 Reference value :  2.95340e-05
 Reference value :  2.95463e-05
 Reference value :  2.95533e-05
 Reference value :  2.95664e-05
 Reference value :  2.95786e-05
 Reference value :  2.95908e-05
 Reference value :  2.96268e-05
 Reference value :  2.97118e-05
 Reference value :  2.97501e-05
 Reference value :  2.97502e-05
 Reference value :  2.97502e-05
 Reference value :  2.97504e-05
 Reference value :  2.97515e-05
 Reference value :  2.97526e-05
 Reference value :  2.97540e-05
 Reference value :  2.97554e-05
 Reference value :  2.97570e-05
 Reference value :  2.97597e-05
 Reference value :  2.97745e-05
 Reference value :  2.98003e-05
 Reference value :  2.98729e-05
 Reference value :  3.00000e-05
 Reference value :  3.00001e-05
 Reference value :  3.00002e-05
 Reference value :  3.00005e-05
 Reference value :  3.00013e-05
 Reference value :  3.00022e-05
 Reference value :  3.00040e-05
 Reference value :  3.00053e-05
 Reference value :  3.00073e-05
 Reference value :  3.00093e-05
 Reference value :  3.00124e-05
 Reference value :  3.00891e-05
 Reference value :  3.02502e-05
 Reference value :  3.02503e-05
 Reference value :  3.02515e-05
 Reference value :  3.02533e-05
 Reference value :  3.02547e-05
 Reference value :  3.02570e-05
 Reference value :  3.02817e-05
 Reference value :  3.05004e-05
 Reference value :  3.05016e-05
 Reference value :  3.05037e-05
 Reference value :  3.05065e-05
 Reference value :  3.05109e-05
 Reference value :  3.05155e-05
 Reference value :  3.05191e-05
 Reference value :  3.05254e-05
 Reference value :  3.05436e-05
 Reference value :  3.05573e-05
 Reference value :  3.05876e-05
 Reference value :  3.07501e-05
 Reference value :  3.07502e-05
 Reference value :  3.07504e-05
 Reference value :  3.07515e-05
 Reference value :  3.07526e-05
 Reference value :  3.07547e-05
 Reference value :  3.07570e-05
 Reference value :  3.07656e-05
 Reference value :  3.08851e-05
 Reference value :  3.10000e-05
 Reference value :  3.10001e-05
 Reference value :  3.10003e-05
 Reference value :  3.10013e-05
 Reference value :  3.10022e-05
 Reference value :  3.10041e-05
 Reference value :  3.10067e-05
 Reference value :  3.10075e-05
 Reference value :  3.10095e-05
 Reference value :  3.10116e-05
 Reference value :  3.10141e-05
 Reference value :  3.10420e-05
 Reference value :  3.12501e-05
 Reference value :  3.12502e-05
 Reference value :  3.12504e-05
 Reference value :  3.12520e-05
 Reference value :  3.12546e-05
 Reference value :  3.12579e-05
 Reference value :  3.12632e-05
 Reference value :  3.13221e-05
 Reference value :  3.15000e-05
 Reference value :  3.15002e-05
 Reference value :  3.15009e-05
 Reference value :  3.15022e-05
 Reference value :  3.15046e-05
 Reference value :  3.15058e-05
 Reference value :  3.15071e-05
 Reference value :  3.15090e-05
 Reference value :  3.15115e-05
 Reference value :  3.15138e-05
 Reference value :  3.15162e-05
 Reference value :  3.15186e-05
 Reference value :  3.15228e-05
 Reference value :  3.15322e-05
 Reference value :  3.15631e-05
 Reference value :  3.16058e-05
 Reference value :  3.16716e-05
 Reference value :  3.17501e-05
 Reference value :  3.17502e-05
 Reference value :  3.17507e-05
 Reference value :  3.17520e-05
 Reference value :  3.17540e-05
 Reference value :  3.17553e-05
 Reference value :  3.17569e-05
 Reference value :  3.17617e-05
 Reference value :  3.17984e-05
 Reference value :  3.20000e-05
 Reference value :  3.20001e-05
 Reference value :  3.20002e-05
 Reference value :  3.20009e-05
 Reference value :  3.20018e-05
 Reference value :  3.20027e-05
 Reference value :  3.20049e-05
 Reference value :  3.20067e-05
 Reference value :  3.20075e-05
 Reference value :  3.20095e-05
 Reference value :  3.20128e-05
 Reference value :  3.20283e-05
 Reference value :  3.22112e-05
 Reference value :  3.22501e-05
 Reference value :  3.22502e-05
 Reference value :  3.22504e-05
 Reference value :  3.22515e-05
 Reference value :  3.22525e-05
 Reference value :  3.22540e-05
 Reference value :  3.22553e-05
 Reference value :  3.22578e-05
 Reference value :  3.22612e-05
 Reference value :  3.22751e-05
 Reference value :  3.23576e-05
 Reference value :  3.25000e-05
 Reference value :  3.25001e-05
 Reference value :  3.25005e-05
 Reference value :  3.25018e-05
 Reference value :  3.25034e-05
 Reference value :  3.25046e-05
 Reference value :  3.25058e-05
 Reference value :  3.25080e-05
 Reference value :  3.25115e-05
 Reference value :  3.25138e-05
 Reference value :  3.25174e-05
 Reference value :  3.25213e-05
 Reference value :  3.25281e-05
 Reference value :  3.26087e-05
 Reference value :  3.27501e-05
 Reference value :  3.27502e-05
 Reference value :  3.27503e-05
 Reference value :  3.27507e-05
 Reference value :  3.27520e-05
 Reference value :  3.27540e-05
 Reference value :  3.27553e-05
 Reference value :  3.27568e-05
 Reference value :  3.27616e-05
 Reference value :  3.27982e-05
 Reference value :  3.30000e-05
 Reference value :  3.30001e-05
 Reference value :  3.30002e-05
 Reference value :  3.30013e-05
 Reference value :  3.30027e-05
 Reference value :  3.30049e-05
 Reference value :  3.30075e-05
 Reference value :  3.30106e-05
 Reference value :  3.30208e-05
 Reference value :  3.32501e-05
 Reference value :  3.32502e-05
 Reference value :  3.32510e-05
 Reference value :  3.32533e-05
 Reference value :  3.32553e-05
 Reference value :  3.32588e-05
 Reference value :  3.32690e-05
 Reference value :  3.35000e-05
 Reference value :  3.35013e-05
 Reference value :  3.35053e-05
 Reference value :  3.35087e-05
 Reference value :  3.35118e-05
 Reference value :  3.35176e-05
 Reference value :  3.35250e-05
 Reference value :  3.35681e-05
 Reference value :  3.37501e-05
 Reference value :  3.37502e-05
 Reference value :  3.37507e-05
 Reference value :  3.37520e-05
 Reference value :  3.37549e-05
 Reference value :  3.37570e-05
 Reference value :  3.37601e-05
 Reference value :  3.38116e-05
 Reference value :  3.40000e-05
 Reference value :  3.40000e-05
 Reference value :  3.40000e-05
 Reference value :  3.40000e-05
 Reference value :  3.40000e-05
 Reference value :  3.40001e-05
 Reference value :  3.40002e-05
 Reference value :  3.40008e-05
 Reference value :  3.40019e-05
 Reference value :  3.40037e-05
 Reference value :  3.40051e-05
 Reference value :  3.40063e-05
 Reference value :  3.40079e-05
 Reference value :  3.40221e-05
 Reference value :  3.40230e-05
 Reference value :  3.40274e-05
 Reference value :  3.40302e-05
 Reference value :  3.40348e-05
 Reference value :  3.40382e-05
 Reference value :  3.40410e-05
 Reference value :  3.40451e-05
 Reference value :  3.40520e-05
 Reference value :  3.40601e-05
 Reference value :  3.40692e-05
 Reference value :  3.41129e-05
 Reference value :  3.41886e-05
 Reference value :  3.42501e-05
 Reference value :  3.42502e-05
 Reference value :  3.42504e-05
 Reference value :  3.42515e-05
 Reference value :  3.42526e-05
 Reference value :  3.42541e-05
 Reference value :  3.42554e-05
 Reference value :  3.42569e-05
 Reference value :  3.42596e-05
 Reference value :  3.42710e-05
 Reference value :  3.43303e-05
 Reference value :  3.45000e-05
 Reference value :  3.45000e-05
 Reference value :  3.45001e-05
 Reference value :  3.45002e-05
 Reference value :  3.45005e-05
 Reference value :  3.45013e-05
 Reference value :  3.45022e-05
 Reference value :  3.45034e-05
 Reference value :  3.45046e-05
 Reference value :  3.45063e-05
 Reference value :  3.45089e-05
 Reference value :  3.45118e-05
 Reference value :  3.45150e-05
 Reference value :  3.45165e-05
 Reference value :  3.45205e-05
 Reference value :  3.45332e-05
 Reference value :  3.45981e-05
 Reference value :  3.47501e-05
 Reference value :  3.47502e-05
 Reference value :  3.47503e-05
 Reference value :  3.47511e-05
 Reference value :  3.47520e-05
 Reference value :  3.47540e-05
 Reference value :  3.47553e-05
 Reference value :  3.47570e-05
 Reference value :  3.47619e-05
 Reference value :  3.47784e-05
 Reference value :  3.47953e-05
 Reference value :  3.48042e-05
 Reference value :  3.48108e-05
 Reference value :  3.48171e-05
 Reference value :  3.48230e-05
 Reference value :  3.48452e-05
 Reference value :  3.48668e-05
 Reference value :  3.49105e-05
 Reference value :  3.50000e-05
 Reference value :  3.50001e-05
 Reference value :  3.50001e-05
 Reference value :  3.50003e-05
 Reference value :  3.50013e-05
 Reference value :  3.50022e-05
 Reference value :  3.50034e-05
 Reference value :  3.50046e-05
 Reference value :  3.50058e-05
 Reference value :  3.50064e-05
 Reference value :  3.50080e-05
 Reference value :  3.50105e-05
 Reference value :  3.50114e-05
 Reference value :  3.50138e-05
 Reference value :  3.50161e-05
 Reference value :  3.50183e-05
 Reference value :  3.50208e-05
 Reference value :  3.50264e-05
 Reference value :  3.50477e-05
 Reference value :  3.50578e-05
 Reference value :  3.50673e-05
 Reference value :  3.50742e-05
 Reference value :  3.50833e-05
 Reference value :  3.51008e-05
 Reference value :  3.51633e-05
 Reference value :  3.52501e-05
 Reference value :  3.52502e-05
 Reference value :  3.52502e-05
 Reference value :  3.52504e-05
 Reference value :  3.52515e-05
 Reference value :  3.52526e-05
 Reference value :  3.52541e-05
 Reference value :  3.52553e-05
 Reference value :  3.52569e-05
 Reference value :  3.52618e-05
 Reference value :  3.52987e-05
 Reference value :  3.54831e-05
 Reference value :  3.55000e-05
 Reference value :  3.55001e-05
 Reference value :  3.55002e-05
 Reference value :  3.55009e-05
 Reference value :  3.55018e-05
 Reference value :  3.55028e-05
 Reference value :  3.55040e-05
 Reference value :  3.55046e-05
 Reference value :  3.55063e-05
 Reference value :  3.55083e-05
 Reference value :  3.55102e-05
 Reference value :  3.55124e-05
 Reference value :  3.55212e-05
 Reference value :  3.55891e-05
 Reference value :  3.57501e-05
 Reference value :  3.57502e-05
 Reference value :  3.57503e-05
 Reference value :  3.57504e-05
 Reference value :  3.57511e-05
 Reference value :  3.57520e-05
 Reference value :  3.57533e-05
 Reference value :  3.57547e-05
 Reference value :  3.57561e-05
 Reference value :  3.57620e-05
 Reference value :  3.57998e-05
 Reference value :  3.60000e-05
 Reference value :  3.60004e-05
 Reference value :  3.60015e-05
 Reference value :  3.60024e-05
 Reference value :  3.60035e-05
 Reference value :  3.60047e-05
 Reference value :  3.60059e-05
 Reference value :  3.60080e-05
 Reference value :  3.60126e-05
 Reference value :  3.60153e-05
 Reference value :  3.60189e-05
 Reference value :  3.60231e-05
 Reference value :  3.60424e-05
 Reference value :  3.61173e-05
 Reference value :  3.62501e-05
 Reference value :  3.62502e-05
 Reference value :  3.62503e-05
 Reference value :  3.62511e-05
 Reference value :  3.62520e-05
 Reference value :  3.62541e-05
 Reference value :  3.62554e-05
 Reference value :  3.62578e-05
 Reference value :  3.62652e-05
 Reference value :  3.63302e-05
 Reference value :  3.65000e-05
 Reference value :  3.65001e-05
 Reference value :  3.65003e-05
 Reference value :  3.65013e-05
 Reference value :  3.65022e-05
 Reference value :  3.65040e-05
 Reference value :  3.65053e-05
 Reference value :  3.65073e-05
 Reference value :  3.65093e-05
 Reference value :  3.65112e-05
 Reference value :  3.65162e-05
 Reference value :  3.65893e-05
 Reference value :  3.67501e-05
 Reference value :  3.67502e-05
 Reference value :  3.67504e-05
 Reference value :  3.67511e-05
 Reference value :  3.67520e-05
 Reference value :  3.67533e-05
 Reference value :  3.67541e-05
 Reference value :  3.67547e-05
 Reference value :  3.67561e-05
 Reference value :  3.67570e-05
 Reference value :  3.67619e-05
 Reference value :  3.67990e-05
 Reference value :  3.70000e-05
 Reference value :  3.70001e-05
 Reference value :  3.70003e-05
 Reference value :  3.70013e-05
 Reference value :  3.70022e-05
 Reference value :  3.70040e-05
 Reference value :  3.70052e-05
 Reference value :  3.70064e-05
 Reference value :  3.70090e-05
 Reference value :  3.70140e-05
 Reference value :  3.70167e-05
 Reference value :  3.70191e-05
 Reference value :  3.70234e-05
 Reference value :  3.70425e-05
 Reference value :  3.71135e-05
 Reference value :  3.71945e-05
 Reference value :  3.72501e-05
 Reference value :  3.72502e-05
 Reference value :  3.72503e-05
 Reference value :  3.72507e-05
 Reference value :  3.72520e-05
 Reference value :  3.72547e-05
 Reference value :  3.72569e-05
 Reference value :  3.72812e-05
 Reference value :  3.75000e-05
 Reference value :  3.75001e-05
 Reference value :  3.75003e-05
 Reference value :  3.75013e-05
 Reference value :  3.75022e-05
 Reference value :  3.75040e-05
 Reference value :  3.75053e-05
 Reference value :  3.75073e-05
 Reference value :  3.75093e-05
 Reference value :  3.75112e-05
 Reference value :  3.75162e-05
 Reference value :  3.75892e-05
 Reference value :  3.77501e-05
 Reference value :  3.77502e-05
 Reference value :  3.77503e-05
 Reference value :  3.77511e-05
 Reference value :  3.77520e-05
 Reference value :  3.77541e-05
 Reference value :  3.77554e-05
 Reference value :  3.77579e-05
 Reference value :  3.77655e-05
 Reference value :  3.78310e-05
 Reference value :  3.80000e-05
 Reference value :  3.80001e-05
 Reference value :  3.80002e-05
 Reference value :  3.80009e-05
 Reference value :  3.80018e-05
 Reference value :  3.80028e-05
 Reference value :  3.80046e-05
 Reference value :  3.80058e-05
 Reference value :  3.80071e-05
 Reference value :  3.80106e-05
 Reference value :  3.80140e-05
 Reference value :  3.80167e-05
 Reference value :  3.80191e-05
 Reference value :  3.80234e-05
 Reference value :  3.80400e-05
 Reference value :  3.80538e-05
 Reference value :  3.80672e-05
 Reference value :  3.80864e-05
 Reference value :  3.81312e-05
 Reference value :  3.82149e-05
 Reference value :  3.82384e-05
 Reference value :  3.82501e-05
 Reference value :  3.82502e-05
 Reference value :  3.82507e-05
 Reference value :  3.82520e-05
 Reference value :  3.82547e-05
 Reference value :  3.82569e-05
 Reference value :  3.82652e-05
 Reference value :  3.83848e-05
 Reference value :  3.85003e-05
 Reference value :  3.85014e-05
 Reference value :  3.85026e-05
 Reference value :  3.85038e-05
 Reference value :  3.85061e-05
 Reference value :  3.85082e-05
 Reference value :  3.85111e-05
 Reference value :  3.85287e-05
 Reference value :  3.87501e-05
 Reference value :  3.87503e-05
 Reference value :  3.87507e-05
 Reference value :  3.87515e-05
 Reference value :  3.87520e-05
 Reference value :  3.87540e-05
 Reference value :  3.87553e-05
 Reference value :  3.87617e-05
 Reference value :  3.88319e-05
 Reference value :  3.90000e-05
 Reference value :  3.90001e-05
 Reference value :  3.90005e-05
 Reference value :  3.90018e-05
 Reference value :  3.90040e-05
 Reference value :  3.90058e-05
 Reference value :  3.90090e-05
 Reference value :  3.90140e-05
 Reference value :  3.90180e-05
 Reference value :  3.90216e-05
 Reference value :  3.90368e-05
 Reference value :  3.90483e-05
 Reference value :  3.90627e-05
 Reference value :  3.90903e-05
 Reference value :  3.92501e-05
 Reference value :  3.92502e-05
 Reference value :  3.92507e-05
 Reference value :  3.92520e-05
 Reference value :  3.92540e-05
 Reference value :  3.92560e-05
 Reference value :  3.92623e-05
 Reference value :  3.93338e-05
 Reference value :  3.95000e-05
 Reference value :  3.95002e-05
 Reference value :  3.95013e-05
 Reference value :  3.95033e-05
 Reference value :  3.95056e-05
 Reference value :  3.95075e-05
 Reference value :  3.95106e-05
 Reference value :  3.95128e-05
 Reference value :  3.95283e-05
 Reference value :  3.96147e-05
 Reference value :  3.97501e-05
 Reference value :  3.97502e-05
 Reference value :  3.97503e-05
 Reference value :  3.97507e-05
 Reference value :  3.97515e-05
 Reference value :  3.97525e-05
 Reference value :  3.97540e-05
 Reference value :  3.97546e-05
 Reference value :  3.97560e-05
 Reference value :  3.97579e-05
 Reference value :  3.97599e-05
 Reference value :  3.97655e-05
 Reference value :  3.97839e-05
 Reference value :  3.99174e-05
 Reference value :  4.00000e-05
 Reference value :  4.00001e-05
 Reference value :  4.00002e-05
 Reference value :  4.00005e-05
 Reference value :  4.00013e-05
 Reference value :  4.00022e-05
 Reference value :  4.00034e-05
 Reference value :  4.00046e-05
 Reference value :  4.00058e-05
 Reference value :  4.00071e-05
 Reference value :  4.00105e-05
 Reference value :  4.00115e-05
 Reference value :  4.00138e-05
 Reference value :  4.00162e-05
 Reference value :  4.00186e-05
 Reference value :  4.00228e-05
 Reference value :  4.00317e-05
 Reference value :  4.00484e-05
 Reference value :  4.01107e-05
 Reference value :  4.01516e-05
 Reference value :  4.01963e-05
 Reference value :  4.02501e-05
 Reference value :  4.02502e-05
 Reference value :  4.02502e-05
 Reference value :  4.02503e-05
 Reference value :  4.02507e-05
 Reference value :  4.02515e-05
 Reference value :  4.02520e-05
 Reference value :  4.02533e-05
 Reference value :  4.02546e-05
 Reference value :  4.02559e-05
 Reference value :  4.02568e-05
 Reference value :  4.02594e-05
 Reference value :  4.02703e-05
 Reference value :  4.03302e-05
 Reference value :  4.05000e-05
 Reference value :  4.05001e-05
 Reference value :  4.05002e-05
 Reference value :  4.05005e-05
 Reference value :  4.05013e-05
 Reference value :  4.05022e-05
 Reference value :  4.05041e-05
 Reference value :  4.05067e-05
 Reference value :  4.05075e-05
 Reference value :  4.05095e-05
 Reference value :  4.05116e-05
 Reference value :  4.05141e-05
 Reference value :  4.05419e-05
 Reference value :  4.07113e-05
 Reference value :  4.07501e-05
 Reference value :  4.07502e-05
 Reference value :  4.07503e-05
 Reference value :  4.07507e-05
 Reference value :  4.07520e-05
 Reference value :  4.07540e-05
 Reference value :  4.07553e-05
 Reference value :  4.07578e-05
 Reference value :  4.07612e-05
 Reference value :  4.07751e-05
 Reference value :  4.08212e-05
 Reference value :  4.10013e-05
 Reference value :  4.10040e-05
 Reference value :  4.10053e-05
 Reference value :  4.10077e-05
 Reference value :  4.10115e-05
 Reference value :  4.10138e-05
 Reference value :  4.10159e-05
 Reference value :  4.10178e-05
 Reference value :  4.10213e-05
 Reference value :  4.10272e-05
 Reference value :  4.10480e-05
 Reference value :  4.10621e-05
 Reference value :  4.10767e-05
 Reference value :  4.10857e-05
 Reference value :  4.11540e-05
 Reference value :  4.12501e-05
 Reference value :  4.12502e-05
 Reference value :  4.12507e-05
 Reference value :  4.12520e-05
 Reference value :  4.12540e-05
 Reference value :  4.12553e-05
 Reference value :  4.12568e-05
 Reference value :  4.12617e-05
 Reference value :  4.12983e-05
 Reference value :  4.15000e-05
 Reference value :  4.15001e-05
 Reference value :  4.15001e-05
 Reference value :  4.15005e-05
 Reference value :  4.15018e-05
 Reference value :  4.15028e-05
 Reference value :  4.15040e-05
 Reference value :  4.15053e-05
 Reference value :  4.15085e-05
 Reference value :  4.15106e-05
 Reference value :  4.15129e-05
 Reference value :  4.15211e-05
 Reference value :  4.15622e-05
 Reference value :  4.17501e-05
 Reference value :  4.17502e-05
 Reference value :  4.17504e-05
 Reference value :  4.17515e-05
 Reference value :  4.17533e-05
 Reference value :  4.17546e-05
 Reference value :  4.17570e-05
 Reference value :  4.17619e-05
 Reference value :  4.17996e-05
 Reference value :  4.20000e-05
 Reference value :  4.20001e-05
 Reference value :  4.20003e-05
 Reference value :  4.20013e-05
 Reference value :  4.20022e-05
 Reference value :  4.20040e-05
 Reference value :  4.20052e-05
 Reference value :  4.20064e-05
 Reference value :  4.20090e-05
 Reference value :  4.20111e-05
 Reference value :  4.20179e-05
 Reference value :  4.20505e-05
 Reference value :  4.22501e-05
 Reference value :  4.22502e-05
 Reference value :  4.22503e-05
 Reference value :  4.22507e-05
 Reference value :  4.22520e-05
 Reference value :  4.22542e-05
 Reference value :  4.22585e-05
 Reference value :  4.22662e-05
 Reference value :  4.23156e-05
 Reference value :  4.25000e-05
 Reference value :  4.25000e-05
 Reference value :  4.25000e-05
 Reference value :  4.25001e-05
 Reference value :  4.25004e-05
 Reference value :  4.25024e-05
 Reference value :  4.25044e-05
 Reference value :  4.25057e-05
 Reference value :  4.25094e-05
 Reference value :  4.25288e-05
 Reference value :  4.25337e-05
 Reference value :  4.25374e-05
 Reference value :  4.25401e-05
 Reference value :  4.25444e-05
 Reference value :  4.25471e-05
 Reference value :  4.25506e-05
 Reference value :  4.25602e-05
 Reference value :  4.25806e-05
 Reference value :  4.26442e-05
 Reference value :  4.27501e-05
 Reference value :  4.27502e-05
 Reference value :  4.27502e-05
 Reference value :  4.27507e-05
 Reference value :  4.27520e-05
 Reference value :  4.27540e-05
 Reference value :  4.27553e-05
 Reference value :  4.27569e-05
 Reference value :  4.27618e-05
 Reference value :  4.27989e-05
 Reference value :  4.29986e-05
 Reference value :  4.30000e-05
 Reference value :  4.30001e-05
 Reference value :  4.30005e-05
 Reference value :  4.30018e-05
 Reference value :  4.30034e-05
 Reference value :  4.30054e-05
 Reference value :  4.30075e-05
 Reference value :  4.30091e-05
 Reference value :  4.30133e-05
 Reference value :  4.30162e-05
 Reference value :  4.30261e-05
 Reference value :  4.31004e-05
 Reference value :  4.32501e-05
 Reference value :  4.32502e-05
 Reference value :  4.32502e-05
 Reference value :  4.32507e-05
 Reference value :  4.32520e-05
 Reference value :  4.32540e-05
 Reference value :  4.32553e-05
 Reference value :  4.32596e-05
 Reference value :  4.32710e-05
 Reference value :  4.32953e-05
 Reference value :  4.33057e-05
 Reference value :  4.33132e-05
 Reference value :  4.33275e-05
 Reference value :  4.33618e-05
 Reference value :  4.34496e-05
 Reference value :  4.35000e-05
 Reference value :  4.35001e-05
 Reference value :  4.35003e-05
 Reference value :  4.35012e-05
 Reference value :  4.35021e-05
 Reference value :  4.35032e-05
 Reference value :  4.35045e-05
 Reference value :  4.35058e-05
 Reference value :  4.35071e-05
 Reference value :  4.35105e-05
 Reference value :  4.35115e-05
 Reference value :  4.35138e-05
 Reference value :  4.35162e-05
 Reference value :  4.35186e-05
 Reference value :  4.35212e-05
 Reference value :  4.35278e-05
 Reference value :  4.35522e-05
 Reference value :  4.35634e-05
 Reference value :  4.35760e-05
 Reference value :  4.35885e-05
 Reference value :  4.36208e-05
 Reference value :  4.37501e-05
 Reference value :  4.37503e-05
 Reference value :  4.37515e-05
 Reference value :  4.37541e-05
 Reference value :  4.37560e-05
 Reference value :  4.37596e-05
 Reference value :  4.37987e-05
 Reference value :  4.40000e-05
 Reference value :  4.40001e-05
 Reference value :  4.40009e-05
 Reference value :  4.40022e-05
 Reference value :  4.40040e-05
 Reference value :  4.40063e-05
 Reference value :  4.40083e-05
 Reference value :  4.40102e-05
 Reference value :  4.40136e-05
 Reference value :  4.40503e-05
 Reference value :  4.42501e-05
 Reference value :  4.42502e-05
 Reference value :  4.42504e-05
 Reference value :  4.42520e-05
 Reference value :  4.42541e-05
 Reference value :  4.42554e-05
 Reference value :  4.42579e-05
 Reference value :  4.42715e-05
 Reference value :  4.43847e-05
 Reference value :  4.45000e-05
 Reference value :  4.45001e-05
 Reference value :  4.45005e-05
 Reference value :  4.45018e-05
 Reference value :  4.45028e-05
 Reference value :  4.45046e-05
 Reference value :  4.45058e-05
 Reference value :  4.45071e-05
 Reference value :  4.45106e-05
 Reference value :  4.45140e-05
 Reference value :  4.45167e-05
 Reference value :  4.45191e-05
 Reference value :  4.45234e-05
 Reference value :  4.45423e-05
 Reference value :  4.46743e-05
 Reference value :  4.47501e-05
 Reference value :  4.47502e-05
 Reference value :  4.47504e-05
 Reference value :  4.47515e-05
 Reference value :  4.47525e-05
 Reference value :  4.47546e-05
 Reference value :  4.47569e-05
 Reference value :  4.47650e-05
 Reference value :  4.48305e-05
 Reference value :  4.50000e-05
 Reference value :  4.50001e-05
 Reference value :  4.50003e-05
 Reference value :  4.50013e-05
 Reference value :  4.50022e-05
 Reference value :  4.50040e-05
 Reference value :  4.50053e-05
 Reference value :  4.50073e-05
 Reference value :  4.50093e-05
 Reference value :  4.50112e-05
 Reference value :  4.50136e-05
 Reference value :  4.50504e-05
 Reference value :  4.52501e-05
 Reference value :  4.52502e-05
 Reference value :  4.52503e-05
 Reference value :  4.52511e-05
 Reference value :  4.52520e-05
 Reference value :  4.52541e-05
 Reference value :  4.52554e-05
 Reference value :  4.52579e-05
 Reference value :  4.52715e-05
 Reference value :  4.53847e-05
 Reference value :  4.55000e-05
 Reference value :  4.55001e-05
 Reference value :  4.55002e-05
 Reference value :  4.55009e-05
 Reference value :  4.55018e-05
 Reference value :  4.55028e-05
 Reference value :  4.55046e-05
 Reference value :  4.55058e-05
 Reference value :  4.55071e-05
 Reference value :  4.55090e-05
 Reference value :  4.55126e-05
 Reference value :  4.55140e-05
 Reference value :  4.55167e-05
 Reference value :  4.55191e-05
 Reference value :  4.55234e-05
 Reference value :  4.55423e-05
 Reference value :  4.56141e-05
 Reference value :  4.57501e-05
 Reference value :  4.57502e-05
 Reference value :  4.57504e-05
 Reference value :  4.57515e-05
 Reference value :  4.57526e-05
 Reference value :  4.57547e-05
 Reference value :  4.57569e-05
 Reference value :  4.57710e-05
 Reference value :  4.59805e-05
 Reference value :  4.60003e-05
 Reference value :  4.60014e-05
 Reference value :  4.60026e-05
 Reference value :  4.60038e-05
 Reference value :  4.60051e-05
 Reference value :  4.60072e-05
 Reference value :  4.60092e-05
 Reference value :  4.60111e-05
 Reference value :  4.60135e-05
 Reference value :  4.60444e-05
 Reference value :  4.62501e-05
 Reference value :  4.62502e-05
 Reference value :  4.62502e-05
 Reference value :  4.62503e-05
 Reference value :  4.62510e-05
 Reference value :  4.62520e-05
 Reference value :  4.62540e-05
 Reference value :  4.62553e-05
 Reference value :  4.62578e-05
[...]
 Reference value :  1.67008e-04
 Reference value :  1.67010e-04
 Reference value :  1.67012e-04
 Reference value :  1.67031e-04
 Reference value :  1.67250e-04
 Reference value :  1.67250e-04
 Reference value :  1.67250e-04
 Reference value :  1.67251e-04
 Reference value :  1.67252e-04
 Reference value :  1.67254e-04
 Reference value :  1.67255e-04
 Reference value :  1.67256e-04
 Reference value :  1.67258e-04
 Reference value :  1.67266e-04
 Reference value :  1.67300e-04
 Reference value :  1.67478e-04
 Reference value :  1.67500e-04
 Reference value :  1.67500e-04
 Reference value :  1.67501e-04
 Reference value :  1.67502e-04
 Reference value :  1.67502e-04
 Reference value :  1.67503e-04
 Reference value :  1.67505e-04
 Reference value :  1.67506e-04
 Reference value :  1.67507e-04
 Reference value :  1.67511e-04
 Reference value :  1.67514e-04
 Reference value :  1.67515e-04
 Reference value :  1.67518e-04
 Reference value :  1.67520e-04
 Reference value :  1.67525e-04
 Reference value :  1.67543e-04
 Reference value :  1.67559e-04
 Reference value :  1.67578e-04
 Reference value :  1.67659e-04
 Reference value :  1.67750e-04
 Reference value :  1.67750e-04
 Reference value :  1.67750e-04
 Reference value :  1.67752e-04
 Reference value :  1.67753e-04
 Reference value :  1.67755e-04
 Reference value :  1.67757e-04
 Reference value :  1.67762e-04
 Reference value :  1.67782e-04
 Reference value :  1.67997e-04
 Reference value :  1.68000e-04
 Reference value :  1.68000e-04
 Reference value :  1.68000e-04
 Reference value :  1.68001e-04
 Reference value :  1.68001e-04
 Reference value :  1.68002e-04
 Reference value :  1.68004e-04
 Reference value :  1.68007e-04
 Reference value :  1.68008e-04
 Reference value :  1.68009e-04
 Reference value :  1.68012e-04
 Reference value :  1.68014e-04
 Reference value :  1.68028e-04
 Reference value :  1.68212e-04
 Reference value :  1.68250e-04
 Reference value :  1.68250e-04
 Reference value :  1.68250e-04
 Reference value :  1.68252e-04
 Reference value :  1.68253e-04
 Reference value :  1.68254e-04
 Reference value :  1.68255e-04
 Reference value :  1.68257e-04
 Reference value :  1.68259e-04
 Reference value :  1.68261e-04
 Reference value :  1.68275e-04
 Reference value :  1.68358e-04
 Reference value :  1.68500e-04
 Reference value :  1.68500e-04
 Reference value :  1.68500e-04
 Reference value :  1.68501e-04
 Reference value :  1.68502e-04
 Reference value :  1.68503e-04
 Reference value :  1.68505e-04
 Reference value :  1.68506e-04
 Reference value :  1.68507e-04
 Reference value :  1.68510e-04
 Reference value :  1.68511e-04
 Reference value :  1.68514e-04
 Reference value :  1.68516e-04
 Reference value :  1.68519e-04
 Reference value :  1.68523e-04
 Reference value :  1.68533e-04
 Reference value :  1.68571e-04
 Reference value :  1.68750e-04
 Reference value :  1.68750e-04
 Reference value :  1.68750e-04
 Reference value :  1.68751e-04
 Reference value :  1.68752e-04
 Reference value :  1.68754e-04
 Reference value :  1.68755e-04
 Reference value :  1.68757e-04
 Reference value :  1.68762e-04
 Reference value :  1.68798e-04
 Reference value :  1.69000e-04
 Reference value :  1.69000e-04
 Reference value :  1.69000e-04
 Reference value :  1.69001e-04
 Reference value :  1.69001e-04
 Reference value :  1.69002e-04
 Reference value :  1.69003e-04
 Reference value :  1.69005e-04
 Reference value :  1.69007e-04
 Reference value :  1.69008e-04
 Reference value :  1.69009e-04
 Reference value :  1.69013e-04
 Reference value :  1.69042e-04
 Reference value :  1.69250e-04
 Reference value :  1.69250e-04
 Reference value :  1.69250e-04
 Reference value :  1.69252e-04
 Reference value :  1.69253e-04
 Reference value :  1.69255e-04
 Reference value :  1.69257e-04
 Reference value :  1.69260e-04
 Reference value :  1.69265e-04
 Reference value :  1.69298e-04
 Reference value :  1.69500e-04
 Reference value :  1.69500e-04
 Reference value :  1.69500e-04
 Reference value :  1.69501e-04
 Reference value :  1.69501e-04
 Reference value :  1.69502e-04
 Reference value :  1.69504e-04
 Reference value :  1.69505e-04
 Reference value :  1.69506e-04
 Reference value :  1.69507e-04
 Reference value :  1.69509e-04
 Reference value :  1.69511e-04
 Reference value :  1.69513e-04
 Reference value :  1.69516e-04
 Reference value :  1.69517e-04
 Reference value :  1.69519e-04
 Reference value :  1.69522e-04
 Reference value :  1.69528e-04
 Reference value :  1.69551e-04
 Reference value :  1.69668e-04
 Reference value :  1.69750e-04
 Reference value :  1.69750e-04
 Reference value :  1.69750e-04
 Reference value :  1.69751e-04
 Reference value :  1.69752e-04
 Reference value :  1.69752e-04
 Reference value :  1.69753e-04
 Reference value :  1.69755e-04
 Reference value :  1.69757e-04
 Reference value :  1.69760e-04
 Reference value :  1.69766e-04
 Reference value :  1.69794e-04
 Reference value :  1.69937e-04
 Reference value :  1.70000e-04
 Reference value :  1.70000e-04
 Reference value :  1.70000e-04
 Reference value :  1.70000e-04
 Reference value :  1.70000e-04
 Reference value :  1.70000e-04
 Reference value :  1.70000e-04
 Reference value :  1.70000e-04
 Reference value :  1.70001e-04
 Reference value :  1.70002e-04
 Reference value :  1.70004e-04
 Reference value :  1.70005e-04
 Reference value :  1.70006e-04
 Reference value :  1.70008e-04
 Reference value :  1.70022e-04
 Reference value :  1.70023e-04
 Reference value :  1.70027e-04
 Reference value :  1.70033e-04
 Reference value :  1.70035e-04
 Reference value :  1.70038e-04
 Reference value :  1.70041e-04
 Reference value :  1.70046e-04
 Reference value :  1.70054e-04
 Reference value :  1.70066e-04
 Reference value :  1.70101e-04
 Reference value :  1.70167e-04
 Reference value :  1.70250e-04
 Reference value :  1.70250e-04
 Reference value :  1.70250e-04
 Reference value :  1.70250e-04
 Reference value :  1.70251e-04
 Reference value :  1.70252e-04
 Reference value :  1.70253e-04
 Reference value :  1.70254e-04
 Reference value :  1.70255e-04
 Reference value :  1.70256e-04
 Reference value :  1.70258e-04
 Reference value :  1.70262e-04
 Reference value :  1.70281e-04
 Reference value :  1.70384e-04
 Reference value :  1.70500e-04
 Reference value :  1.70500e-04
 Reference value :  1.70500e-04
 Reference value :  1.70501e-04
 Reference value :  1.70502e-04
 Reference value :  1.70503e-04
 Reference value :  1.70505e-04
 Reference value :  1.70507e-04
 Reference value :  1.70509e-04
 Reference value :  1.70513e-04
 Reference value :  1.70517e-04
 Reference value :  1.70523e-04
 Reference value :  1.70545e-04
 Reference value :  1.70671e-04
 Reference value :  1.70750e-04
 Reference value :  1.70750e-04
 Reference value :  1.70750e-04
 Reference value :  1.70751e-04
 Reference value :  1.70752e-04
 Reference value :  1.70752e-04
 Reference value :  1.70753e-04
 Reference value :  1.70755e-04
 Reference value :  1.70756e-04
 Reference value :  1.70758e-04
 Reference value :  1.70765e-04
 Reference value :  1.70799e-04
 Reference value :  1.70886e-04
 Reference value :  1.70934e-04
 Reference value :  1.70984e-04
 Reference value :  1.71000e-04
 Reference value :  1.71000e-04
 Reference value :  1.71000e-04
 Reference value :  1.71000e-04
 Reference value :  1.71001e-04
 Reference value :  1.71002e-04
 Reference value :  1.71004e-04
 Reference value :  1.71005e-04
 Reference value :  1.71006e-04
 Reference value :  1.71007e-04
 Reference value :  1.71010e-04
 Reference value :  1.71011e-04
 Reference value :  1.71014e-04
 Reference value :  1.71016e-04
 Reference value :  1.71018e-04
 Reference value :  1.71021e-04
 Reference value :  1.71024e-04
 Reference value :  1.71034e-04
 Reference value :  1.71041e-04
 Reference value :  1.71055e-04
 Reference value :  1.71085e-04
 Reference value :  1.71250e-04
 Reference value :  1.71250e-04
 Reference value :  1.71250e-04
 Reference value :  1.71251e-04
 Reference value :  1.71252e-04
 Reference value :  1.71254e-04
 Reference value :  1.71255e-04
 Reference value :  1.71257e-04
 Reference value :  1.71265e-04
 Reference value :  1.71385e-04
 Reference value :  1.71500e-04
 Reference value :  1.71500e-04
 Reference value :  1.71501e-04
 Reference value :  1.71502e-04
 Reference value :  1.71503e-04
 Reference value :  1.71505e-04
 Reference value :  1.71508e-04
 Reference value :  1.71510e-04
 Reference value :  1.71514e-04
 Reference value :  1.71550e-04
 Reference value :  1.71750e-04
 Reference value :  1.71750e-04
 Reference value :  1.71750e-04
 Reference value :  1.71751e-04
 Reference value :  1.71752e-04
 Reference value :  1.71752e-04
 Reference value :  1.71753e-04
 Reference value :  1.71754e-04
 Reference value :  1.71755e-04
 Reference value :  1.71757e-04
 Reference value :  1.71760e-04
 Reference value :  1.71772e-04
 Reference value :  1.71800e-04
 Reference value :  1.71978e-04
 Reference value :  1.72000e-04
 Reference value :  1.72000e-04
 Reference value :  1.72000e-04
 Reference value :  1.72001e-04
 Reference value :  1.72002e-04
 Reference value :  1.72003e-04
 Reference value :  1.72005e-04
 Reference value :  1.72006e-04
 Reference value :  1.72007e-04
 Reference value :  1.72011e-04
 Reference value :  1.72014e-04
 Reference value :  1.72017e-04
 Reference value :  1.72019e-04
 Reference value :  1.72023e-04
 Reference value :  1.72042e-04
 Reference value :  1.72175e-04
 Reference value :  1.72250e-04
 Reference value :  1.72250e-04
 Reference value :  1.72251e-04
 Reference value :  1.72252e-04
 Reference value :  1.72253e-04
 Reference value :  1.72255e-04
 Reference value :  1.72256e-04
 Reference value :  1.72258e-04
 Reference value :  1.72271e-04
 Reference value :  1.72331e-04
 Reference value :  1.72500e-04
 Reference value :  1.72500e-04
 Reference value :  1.72500e-04
 Reference value :  1.72501e-04
 Reference value :  1.72501e-04
 Reference value :  1.72502e-04
 Reference value :  1.72504e-04
 Reference value :  1.72506e-04
 Reference value :  1.72508e-04
 Reference value :  1.72510e-04
 Reference value :  1.72514e-04
 Reference value :  1.72531e-04
 Reference value :  1.72667e-04
 Reference value :  1.72750e-04
 Reference value :  1.72750e-04
 Reference value :  1.72750e-04
 Reference value :  1.72751e-04
 Reference value :  1.72752e-04
 Reference value :  1.72753e-04
 Reference value :  1.72755e-04
 Reference value :  1.72756e-04
 Reference value :  1.72758e-04
 Reference value :  1.72766e-04
 Reference value :  1.72800e-04
 Reference value :  1.72978e-04
 Reference value :  1.73000e-04
 Reference value :  1.73000e-04
 Reference value :  1.73000e-04
 Reference value :  1.73001e-04
 Reference value :  1.73001e-04
 Reference value :  1.73003e-04
 Reference value :  1.73005e-04
 Reference value :  1.73006e-04
 Reference value :  1.73007e-04
 Reference value :  1.73011e-04
 Reference value :  1.73014e-04
 Reference value :  1.73015e-04
 Reference value :  1.73018e-04
 Reference value :  1.73019e-04
 Reference value :  1.73022e-04
 Reference value :  1.73042e-04
 Reference value :  1.73170e-04
 Reference value :  1.73250e-04
 Reference value :  1.73250e-04
 Reference value :  1.73252e-04
 Reference value :  1.73254e-04
 Reference value :  1.73256e-04
 Reference value :  1.73262e-04
 Reference value :  1.73385e-04
 Reference value :  1.73500e-04
 Reference value :  1.73500e-04
 Reference value :  1.73502e-04
 Reference value :  1.73503e-04
 Reference value :  1.73506e-04
 Reference value :  1.73509e-04
 Reference value :  1.73512e-04
 Reference value :  1.73589e-04
 Reference value :  1.73750e-04
 Reference value :  1.73750e-04
 Reference value :  1.73752e-04
 Reference value :  1.73754e-04
 Reference value :  1.73755e-04
 Reference value :  1.73757e-04
 Reference value :  1.73760e-04
 Reference value :  1.73772e-04
 Reference value :  1.73831e-04
 Reference value :  1.74000e-04
 Reference value :  1.74000e-04
 Reference value :  1.74000e-04
 Reference value :  1.74000e-04
 Reference value :  1.74001e-04
 Reference value :  1.74002e-04
 Reference value :  1.74003e-04
 Reference value :  1.74005e-04
 Reference value :  1.74006e-04
 Reference value :  1.74006e-04
 Reference value :  1.74008e-04
 Reference value :  1.74011e-04
 Reference value :  1.74014e-04
 Reference value :  1.74015e-04
 Reference value :  1.74018e-04
 Reference value :  1.74019e-04
 Reference value :  1.74022e-04
 Reference value :  1.74029e-04
 Reference value :  1.74058e-04
 Reference value :  1.74074e-04
 Reference value :  1.74084e-04
 Reference value :  1.74100e-04
 Reference value :  1.74128e-04
 Reference value :  1.74160e-04
 Reference value :  1.74237e-04
 Reference value :  1.74250e-04
 Reference value :  1.74250e-04
 Reference value :  1.74250e-04
 Reference value :  1.74251e-04
 Reference value :  1.74252e-04
 Reference value :  1.74252e-04
 Reference value :  1.74253e-04
 Reference value :  1.74254e-04
 Reference value :  1.74255e-04
 Reference value :  1.74256e-04
 Reference value :  1.74257e-04
 Reference value :  1.74260e-04
 Reference value :  1.74271e-04
 Reference value :  1.74331e-04
 Reference value :  1.74500e-04
 Reference value :  1.74500e-04
 Reference value :  1.74500e-04
 Reference value :  1.74500e-04
 Reference value :  1.74500e-04
 Reference value :  1.74501e-04
 Reference value :  1.74501e-04
 Reference value :  1.74502e-04
 Reference value :  1.74503e-04
 Reference value :  1.74505e-04
 Reference value :  1.74506e-04
 Reference value :  1.74507e-04
 Reference value :  1.74508e-04
 Reference value :  1.74510e-04
 Reference value :  1.74512e-04
 Reference value :  1.74521e-04
 Reference value :  1.74589e-04
 Reference value :  1.74750e-04
 Reference value :  1.74750e-04
 Reference value :  1.74750e-04
 Reference value :  1.74750e-04
 Reference value :  1.74751e-04
 Reference value :  1.74752e-04
 Reference value :  1.74753e-04
 Reference value :  1.74755e-04
 Reference value :  1.74756e-04
 Reference value :  1.74758e-04
 Reference value :  1.74766e-04
 Reference value :  1.74800e-04
 Reference value :  1.74978e-04
 Reference value :  1.75000e-04
 Reference value :  1.75000e-04
 Reference value :  1.75000e-04
 Reference value :  1.75000e-04
 Reference value :  1.75001e-04
 Reference value :  1.75001e-04
 Reference value :  1.75002e-04
 Reference value :  1.75003e-04
 Reference value :  1.75005e-04
 Reference value :  1.75006e-04
 Reference value :  1.75006e-04
 Reference value :  1.75008e-04
 Reference value :  1.75011e-04
 Reference value :  1.75014e-04
 Reference value :  1.75015e-04
 Reference value :  1.75018e-04
 Reference value :  1.75019e-04
 Reference value :  1.75022e-04
 Reference value :  1.75029e-04
 Reference value :  1.75039e-04
 Reference value :  1.75053e-04
 Reference value :  1.75069e-04
 Reference value :  1.75109e-04
 Reference value :  1.75165e-04
 Reference value :  1.75187e-04
 Reference value :  1.75223e-04
 Reference value :  1.75250e-04
 Reference value :  1.75250e-04
 Reference value :  1.75250e-04
 Reference value :  1.75252e-04
 Reference value :  1.75253e-04
 Reference value :  1.75254e-04
 Reference value :  1.75255e-04
 Reference value :  1.75257e-04
 Reference value :  1.75262e-04
 Reference value :  1.75299e-04
 Reference value :  1.75500e-04
 Reference value :  1.75500e-04
 Reference value :  1.75500e-04
 Reference value :  1.75501e-04
 Reference value :  1.75502e-04
 Reference value :  1.75503e-04
 Reference value :  1.75505e-04
 Reference value :  1.75506e-04
 Reference value :  1.75508e-04
 Reference value :  1.75510e-04
 Reference value :  1.75512e-04
 Reference value :  1.75531e-04
 Reference value :  1.75750e-04
 Reference value :  1.75750e-04
 Reference value :  1.75750e-04
 Reference value :  1.75751e-04
 Reference value :  1.75752e-04
 Reference value :  1.75753e-04
 Reference value :  1.75755e-04
 Reference value :  1.75757e-04
 Reference value :  1.75765e-04
 Reference value :  1.75830e-04
 Reference value :  1.76000e-04
 Reference value :  1.76000e-04
 Reference value :  1.76000e-04
 Reference value :  1.76001e-04
 Reference value :  1.76002e-04
 Reference value :  1.76004e-04
 Reference value :  1.76005e-04
 Reference value :  1.76006e-04
 Reference value :  1.76011e-04
 Reference value :  1.76014e-04
 Reference value :  1.76017e-04
 Reference value :  1.76019e-04
 Reference value :  1.76023e-04
 Reference value :  1.76033e-04
 Reference value :  1.76045e-04
 Reference value :  1.76060e-04
 Reference value :  1.76085e-04
 Reference value :  1.76250e-04
 Reference value :  1.76250e-04
 Reference value :  1.76250e-04
 Reference value :  1.76250e-04
 Reference value :  1.76251e-04
 Reference value :  1.76252e-04
 Reference value :  1.76253e-04
 Reference value :  1.76255e-04
 Reference value :  1.76256e-04
 Reference value :  1.76258e-04
 Reference value :  1.76271e-04
 Reference value :  1.76497e-04
 Reference value :  1.76500e-04
 Reference value :  1.76500e-04
 Reference value :  1.76501e-04
 Reference value :  1.76502e-04
 Reference value :  1.76503e-04
 Reference value :  1.76505e-04
 Reference value :  1.76508e-04
 Reference value :  1.76509e-04
 Reference value :  1.76513e-04
 Reference value :  1.76542e-04
 Reference value :  1.76750e-04
 Reference value :  1.76750e-04
 Reference value :  1.76751e-04
 Reference value :  1.76752e-04
 Reference value :  1.76754e-04
 Reference value :  1.76755e-04
 Reference value :  1.76756e-04
 Reference value :  1.76759e-04
 Reference value :  1.76763e-04
 Reference value :  1.76799e-04
 Reference value :  1.77000e-04
 Reference value :  1.77000e-04
 Reference value :  1.77000e-04
 Reference value :  1.77001e-04
 Reference value :  1.77002e-04
 Reference value :  1.77004e-04
 Reference value :  1.77005e-04
 Reference value :  1.77006e-04
 Reference value :  1.77008e-04
 Reference value :  1.77010e-04
 Reference value :  1.77013e-04
 Reference value :  1.77015e-04
 Reference value :  1.77016e-04
 Reference value :  1.77020e-04
 Reference value :  1.77028e-04
 Reference value :  1.77068e-04
 Reference value :  1.77097e-04
 Reference value :  1.77185e-04
 Reference value :  1.77250e-04
 Reference value :  1.77250e-04
 Reference value :  1.77250e-04
 Reference value :  1.77251e-04
 Reference value :  1.77252e-04
 Reference value :  1.77253e-04
 Reference value :  1.77255e-04
 Reference value :  1.77256e-04
 Reference value :  1.77258e-04
 Reference value :  1.77265e-04
 Reference value :  1.77281e-04
 Reference value :  1.77386e-04
 Reference value :  1.77500e-04
 Reference value :  1.77500e-04
 Reference value :  1.77500e-04
 Reference value :  1.77501e-04
 Reference value :  1.77502e-04
 Reference value :  1.77503e-04
 Reference value :  1.77504e-04
 Reference value :  1.77505e-04
 Reference value :  1.77507e-04
 Reference value :  1.77509e-04
 Reference value :  1.77510e-04
 Reference value :  1.77512e-04
 Reference value :  1.77521e-04
 Reference value :  1.77589e-04
 Reference value :  1.77750e-04
 Reference value :  1.77750e-04
 Reference value :  1.77750e-04
 Reference value :  1.77750e-04
 Reference value :  1.77751e-04
 Reference value :  1.77752e-04
 Reference value :  1.77754e-04
 Reference value :  1.77755e-04
 Reference value :  1.77760e-04
 Reference value :  1.77782e-04
 Reference value :  1.77978e-04
 Reference value :  1.78000e-04
 Reference value :  1.78000e-04
 Reference value :  1.78000e-04
 Reference value :  1.78001e-04
 Reference value :  1.78002e-04
 Reference value :  1.78004e-04
 Reference value :  1.78005e-04
 Reference value :  1.78006e-04
 Reference value :  1.78010e-04
 Reference value :  1.78018e-04
 Reference value :  1.78051e-04
 Reference value :  1.78250e-04
 Reference value :  1.78250e-04
 Reference value :  1.78250e-04
 Reference value :  1.78250e-04
 Reference value :  1.78251e-04
 Reference value :  1.78252e-04
 Reference value :  1.78253e-04
 Reference value :  1.78255e-04
 Reference value :  1.78259e-04
 Reference value :  1.78272e-04
 Reference value :  1.78355e-04
No. of Data Rows : 26392
ngspice-44 done
