
Note: Compatibility modes selected: hs a


Circuit: ** sch_path: /home/ece/cace/sar-adc-using-sky130-pdk/runs/run_2025-09-13_01-23-44/parameters/dnl/run_3/sar_output_dnl.sch

option SCALE: Scale is set to 1e-06 for instance and model parameters
option SCALE: Scale is set to 1e-06 for instance and model parameters
option SCALE: Scale is set to 1e-06 for instance and model parameters
option SCALE: Scale is set to 1e-06 for instance and model parameters
Doing analysis at TEMP = 27.000000 and TNOM = 27.000000

Using KLU as Direct Linear Solver
Operating point simulation skipped by 'uic',
  now using transient initial conditions.
 Reference value :  1.00000e-12
 Reference value :  1.07960e-12
 Reference value :  2.13834e-12
 Reference value :  8.63229e-12
 Reference value :  5.35134e-11
 Reference value :  1.00000e-10
 Reference value :  1.01006e-10
 Reference value :  1.09054e-10
 Reference value :  1.73439e-10
 Reference value :  6.38879e-10
 Reference value :  1.74816e-09
 Reference value :  3.88661e-09
 Reference value :  5.80689e-09
 Reference value :  7.03035e-09
 Reference value :  8.29064e-09
 Reference value :  9.60575e-09
 Reference value :  1.17289e-08
 Reference value :  2.47546e-08
 Reference value :  3.72609e-08
 Reference value :  6.66785e-08
 Reference value :  2.50100e-07
 Reference value :  2.50200e-07
 Reference value :  2.50317e-07
 Reference value :  2.51487e-07
 Reference value :  2.53825e-07
 Reference value :  2.56453e-07
 Reference value :  2.69325e-07
 Reference value :  5.00010e-07
 Reference value :  5.00124e-07
 Reference value :  5.00537e-07
 Reference value :  5.01190e-07
 Reference value :  5.02095e-07
 Reference value :  5.03085e-07
 Reference value :  5.04228e-07
 Reference value :  5.05804e-07
 Reference value :  5.08675e-07
 Reference value :  5.09872e-07
 Reference value :  5.12529e-07
 Reference value :  5.17890e-07
 Reference value :  5.47110e-07
 Reference value :  7.50100e-07
 Reference value :  7.50170e-07
 Reference value :  7.50224e-07
 Reference value :  7.50448e-07
 Reference value :  7.51576e-07
 Reference value :  7.53260e-07
 Reference value :  7.54365e-07
 Reference value :  7.56350e-07
 Reference value :  7.64418e-07
 Reference value :  9.32940e-07
 Reference value :  1.00007e-06
 Reference value :  1.00016e-06
 Reference value :  1.00086e-06
 Reference value :  1.00209e-06
 Reference value :  1.00363e-06
 Reference value :  1.00473e-06
 Reference value :  1.00580e-06
 Reference value :  1.00867e-06
 Reference value :  1.01189e-06
 Reference value :  1.01454e-06
 Reference value :  1.01646e-06
 Reference value :  1.01982e-06
 Reference value :  1.05575e-06
 Reference value :  1.25011e-06
 Reference value :  1.25020e-06
 Reference value :  1.25032e-06
 Reference value :  1.25110e-06
 Reference value :  1.25203e-06
 Reference value :  1.25325e-06
 Reference value :  1.25379e-06
 Reference value :  1.25504e-06
 Reference value :  1.25806e-06
 Reference value :  1.26596e-06
 Reference value :  1.31312e-06
 Reference value :  1.50000e-06
 Reference value :  1.50007e-06
 Reference value :  1.50011e-06
 Reference value :  1.50016e-06
 Reference value :  1.50035e-06
 Reference value :  1.50086e-06
 Reference value :  1.50163e-06
 Reference value :  1.50306e-06
 Reference value :  1.50489e-06
 Reference value :  1.50629e-06
 Reference value :  1.50794e-06
 Reference value :  1.51093e-06
 Reference value :  1.51901e-06
 Reference value :  1.63363e-06
 Reference value :  1.75017e-06
 Reference value :  1.75032e-06
 Reference value :  1.75157e-06
 Reference value :  1.75252e-06
 Reference value :  1.75378e-06
 Reference value :  1.75549e-06
 Reference value :  1.76128e-06
 Reference value :  1.93699e-06
 Reference value :  2.00010e-06
 Reference value :  2.00035e-06
 Reference value :  2.00163e-06
 Reference value :  2.00307e-06
 Reference value :  2.00524e-06
 Reference value :  2.00865e-06
 Reference value :  2.01186e-06
 Reference value :  2.01454e-06
 Reference value :  2.01648e-06
 Reference value :  2.01988e-06
 Reference value :  2.05606e-06
 Reference value :  2.25011e-06
 Reference value :  2.25022e-06
 Reference value :  2.25070e-06
 Reference value :  2.25203e-06
 Reference value :  2.25378e-06
 Reference value :  2.25568e-06
 Reference value :  2.26257e-06
 Reference value :  2.31265e-06
 Reference value :  2.50001e-06
 Reference value :  2.50010e-06
 Reference value :  2.50022e-06
 Reference value :  2.50086e-06
 Reference value :  2.50163e-06
 Reference value :  2.50306e-06
 Reference value :  2.50489e-06
 Reference value :  2.50630e-06
 Reference value :  2.50794e-06
 Reference value :  2.51093e-06
 Reference value :  2.54180e-06
 Reference value :  2.75011e-06
 Reference value :  2.75021e-06
 Reference value :  2.75045e-06
 Reference value :  2.75157e-06
 Reference value :  2.75251e-06
 Reference value :  2.75377e-06
 Reference value :  2.75491e-06
 Reference value :  2.75635e-06
 Reference value :  2.76451e-06
 Reference value :  2.84765e-06
 Reference value :  3.00003e-06
 Reference value :  3.00012e-06
 Reference value :  3.00035e-06
 Reference value :  3.00086e-06
 Reference value :  3.00163e-06
 Reference value :  3.00307e-06
 Reference value :  3.00473e-06
 Reference value :  3.00649e-06
 Reference value :  3.01029e-06
 Reference value :  3.01341e-06
 Reference value :  3.01558e-06
 Reference value :  3.01755e-06
 Reference value :  3.02191e-06
 Reference value :  3.04193e-06
 Reference value :  3.05442e-06
 Reference value :  3.07305e-06
 Reference value :  3.11039e-06
 Reference value :  3.21543e-06
 Reference value :  3.25017e-06
 Reference value :  3.25026e-06
 Reference value :  3.25070e-06
 Reference value :  3.25156e-06
 Reference value :  3.25251e-06
 Reference value :  3.25375e-06
 Reference value :  3.25501e-06
 Reference value :  3.25799e-06
 Reference value :  3.27244e-06
 Reference value :  3.44125e-06
 Reference value :  3.50007e-06
 Reference value :  3.50016e-06
 Reference value :  3.50086e-06
 Reference value :  3.50203e-06
 Reference value :  3.50355e-06
 Reference value :  3.50561e-06
 Reference value :  3.50792e-06
 Reference value :  3.51105e-06
 Reference value :  3.54110e-06
 Reference value :  3.59856e-06
 Reference value :  3.63648e-06
 Reference value :  3.68245e-06
 Reference value :  3.75011e-06
 Reference value :  3.75020e-06
 Reference value :  3.75026e-06
 Reference value :  3.75070e-06
 Reference value :  3.75203e-06
 Reference value :  3.75376e-06
 Reference value :  3.75489e-06
 Reference value :  3.75633e-06
 Reference value :  3.76123e-06
 Reference value :  3.78090e-06
 Reference value :  4.00000e-06
 Reference value :  4.00010e-06
 Reference value :  4.00022e-06
 Reference value :  4.00086e-06
 Reference value :  4.00208e-06
 Reference value :  4.00362e-06
 Reference value :  4.00521e-06
 Reference value :  4.00723e-06
 Reference value :  4.01009e-06
 Reference value :  4.01336e-06
 Reference value :  4.01566e-06
 Reference value :  4.01775e-06
 Reference value :  4.02024e-06
 Reference value :  4.02759e-06
 Reference value :  4.03454e-06
 Reference value :  4.04008e-06
 Reference value :  4.04591e-06
 Reference value :  4.06182e-06
 Reference value :  4.10042e-06
 Reference value :  4.17292e-06
 Reference value :  4.25011e-06
 Reference value :  4.25020e-06
 Reference value :  4.25026e-06
 Reference value :  4.25045e-06
 Reference value :  4.25109e-06
 Reference value :  4.25203e-06
 Reference value :  4.25324e-06
 Reference value :  4.25432e-06
 Reference value :  4.25571e-06
 Reference value :  4.25805e-06
 Reference value :  4.26594e-06
 Reference value :  4.31305e-06
 Reference value :  4.50000e-06
 Reference value :  4.50003e-06
 Reference value :  4.50010e-06
 Reference value :  4.50016e-06
 Reference value :  4.50035e-06
 Reference value :  4.50086e-06
 Reference value :  4.50159e-06
 Reference value :  4.50300e-06
 Reference value :  4.50488e-06
 Reference value :  4.50625e-06
 Reference value :  4.50795e-06
 Reference value :  4.51110e-06
 Reference value :  4.51907e-06
 Reference value :  4.56911e-06
 Reference value :  4.75011e-06
 Reference value :  4.75020e-06
 Reference value :  4.75032e-06
 Reference value :  4.75070e-06
 Reference value :  4.75156e-06
 Reference value :  4.75203e-06
 Reference value :  4.75324e-06
 Reference value :  4.75377e-06
 Reference value :  4.75490e-06
 Reference value :  4.75623e-06
 Reference value :  4.75786e-06
 Reference value :  4.76207e-06
 Reference value :  4.78468e-06
 Reference value :  5.00000e-06
 Reference value :  5.00007e-06
 Reference value :  5.00012e-06
 Reference value :  5.00035e-06
 Reference value :  5.00086e-06
 Reference value :  5.00163e-06
 Reference value :  5.00308e-06
 Reference value :  5.00471e-06
 Reference value :  5.00574e-06
 Reference value :  5.00807e-06
 Reference value :  5.01010e-06
 Reference value :  5.01197e-06
 Reference value :  5.01370e-06
 Reference value :  5.01524e-06
 Reference value :  5.01800e-06
 Reference value :  5.03869e-06
 Reference value :  5.05056e-06
 Reference value :  5.07846e-06
 Reference value :  5.11224e-06
 Reference value :  5.17147e-06
 Reference value :  5.25013e-06
 Reference value :  5.25022e-06
 Reference value :  5.25070e-06
 Reference value :  5.25202e-06
 Reference value :  5.25376e-06
 Reference value :  5.25564e-06
 Reference value :  5.26239e-06
 Reference value :  5.36204e-06
 Reference value :  5.50003e-06
 Reference value :  5.50012e-06
 Reference value :  5.50054e-06
 Reference value :  5.50119e-06
 Reference value :  5.50204e-06
 Reference value :  5.50300e-06
 Reference value :  5.50488e-06
 Reference value :  5.50625e-06
 Reference value :  5.50886e-06
 Reference value :  5.51452e-06
 Reference value :  5.56910e-06
 Reference value :  5.75011e-06
 Reference value :  5.75020e-06
 Reference value :  5.75032e-06
 Reference value :  5.75109e-06
 Reference value :  5.75324e-06
 Reference value :  5.75436e-06
 Reference value :  5.75548e-06
 Reference value :  5.75704e-06
 Reference value :  5.76041e-06
 Reference value :  5.77426e-06
 Reference value :  5.90638e-06
 Reference value :  6.00003e-06
 Reference value :  6.00011e-06
 Reference value :  6.00022e-06
 Reference value :  6.00086e-06
 Reference value :  6.00163e-06
 Reference value :  6.00258e-06
 Reference value :  6.00364e-06
 Reference value :  6.00471e-06
 Reference value :  6.00519e-06
 Reference value :  6.00711e-06
 Reference value :  6.00921e-06
 Reference value :  6.01010e-06
 Reference value :  6.01105e-06
 Reference value :  6.01298e-06
 Reference value :  6.01440e-06
 Reference value :  6.01525e-06
 Reference value :  6.01803e-06
 Reference value :  6.02574e-06
 Reference value :  6.03087e-06
 Reference value :  6.05964e-06
 Reference value :  6.09156e-06
 Reference value :  6.17123e-06
 Reference value :  6.25011e-06
 Reference value :  6.25020e-06
 Reference value :  6.25032e-06
 Reference value :  6.25156e-06
 Reference value :  6.25323e-06
 Reference value :  6.25376e-06
 Reference value :  6.25499e-06
 Reference value :  6.25796e-06
 Reference value :  6.27205e-06
 Reference value :  6.50000e-06
 Reference value :  6.50010e-06
 Reference value :  6.50016e-06
 Reference value :  6.50086e-06
 Reference value :  6.50159e-06
 Reference value :  6.50300e-06
 Reference value :  6.50488e-06
 Reference value :  6.50625e-06
 Reference value :  6.50886e-06
 Reference value :  6.51110e-06
 Reference value :  6.52622e-06
 Reference value :  6.62623e-06
 Reference value :  6.75013e-06
 Reference value :  6.75021e-06
 Reference value :  6.75045e-06
 Reference value :  6.75156e-06
 Reference value :  6.75251e-06
 Reference value :  6.75376e-06
 Reference value :  6.75490e-06
 Reference value :  6.75623e-06
 Reference value :  6.76040e-06
 Reference value :  6.78448e-06
 Reference value :  7.00003e-06
 Reference value :  7.00016e-06
 Reference value :  7.00086e-06
 Reference value :  7.00209e-06
 Reference value :  7.00364e-06
 Reference value :  7.00519e-06
 Reference value :  7.00807e-06
 Reference value :  7.01010e-06
 Reference value :  7.01197e-06
 Reference value :  7.01370e-06
 Reference value :  7.01619e-06
 Reference value :  7.02097e-06
 Reference value :  7.02635e-06
 Reference value :  7.04461e-06
 Reference value :  7.08240e-06
 Reference value :  7.25010e-06
 Reference value :  7.25017e-06
 Reference value :  7.25022e-06
 Reference value :  7.25070e-06
 Reference value :  7.25202e-06
 Reference value :  7.25376e-06
 Reference value :  7.25564e-06
 Reference value :  7.26239e-06
 Reference value :  7.46487e-06
 Reference value :  7.50010e-06
 Reference value :  7.50054e-06
 Reference value :  7.50159e-06
 Reference value :  7.50356e-06
 Reference value :  7.50625e-06
 Reference value :  7.51109e-06
 Reference value :  7.74048e-06
 Reference value :  7.75022e-06
 Reference value :  7.75156e-06
 Reference value :  7.75323e-06
 Reference value :  7.75490e-06
 Reference value :  7.75785e-06
 Reference value :  7.77421e-06
 Reference value :  8.00001e-06
 Reference value :  8.00012e-06
 Reference value :  8.00086e-06
 Reference value :  8.00258e-06
 Reference value :  8.00415e-06
 Reference value :  8.00569e-06
 Reference value :  8.00859e-06
 Reference value :  8.01089e-06
 Reference value :  8.01859e-06
 Reference value :  8.03392e-06
 Reference value :  8.05380e-06
 Reference value :  8.15369e-06
 Reference value :  8.25020e-06
 Reference value :  8.25070e-06
 Reference value :  8.25202e-06
 Reference value :  8.25483e-06
 Reference value :  8.26014e-06
 Reference value :  8.31926e-06
 Reference value :  8.50000e-06
 Reference value :  8.50000e-06
 Reference value :  8.50008e-06
 Reference value :  8.50014e-06
 Reference value :  8.50073e-06
 Reference value :  8.50204e-06
 Reference value :  8.50306e-06
 Reference value :  8.50463e-06
 Reference value :  8.50651e-06
 Reference value :  8.52285e-06
 Reference value :  8.53320e-06
 Reference value :  8.54337e-06
 Reference value :  8.56157e-06
 Reference value :  8.62965e-06
 Reference value :  8.75013e-06
 Reference value :  8.75026e-06
 Reference value :  8.75070e-06
 Reference value :  8.75202e-06
 Reference value :  8.75375e-06
 Reference value :  8.75559e-06
 Reference value :  8.77174e-06
 Reference value :  9.00001e-06
 Reference value :  9.00016e-06
 Reference value :  9.00086e-06
 Reference value :  9.00257e-06
 Reference value :  9.00485e-06
 Reference value :  9.00992e-06
 Reference value :  9.01264e-06
 Reference value :  9.02139e-06
 Reference value :  9.12420e-06
 Reference value :  9.25017e-06
 Reference value :  9.25045e-06
 Reference value :  9.25203e-06
 Reference value :  9.25323e-06
 Reference value :  9.25434e-06
 Reference value :  9.25488e-06
 Reference value :  9.25633e-06
 Reference value :  9.26443e-06
 Reference value :  9.30269e-06
 Reference value :  9.50001e-06
 Reference value :  9.50010e-06
 Reference value :  9.50016e-06
 Reference value :  9.50054e-06
 Reference value :  9.50119e-06
 Reference value :  9.50210e-06
 Reference value :  9.50307e-06
 Reference value :  9.50473e-06
 Reference value :  9.50580e-06
 Reference value :  9.50868e-06
 Reference value :  9.51033e-06
 Reference value :  9.51343e-06
 Reference value :  9.51559e-06
 Reference value :  9.51650e-06
 Reference value :  9.51871e-06
 Reference value :  9.52189e-06
 Reference value :  9.53756e-06
 Reference value :  9.62607e-06
 Reference value :  9.75011e-06
 Reference value :  9.75020e-06
 Reference value :  9.75032e-06
 Reference value :  9.75109e-06
 Reference value :  9.75202e-06
 Reference value :  9.75323e-06
 Reference value :  9.75437e-06
 Reference value :  9.75645e-06
 Reference value :  9.76252e-06
 Reference value :  9.78550e-06
 Reference value :  9.96942e-06
 Reference value :  1.00000e-05
 Reference value :  1.00001e-05
 Reference value :  1.00002e-05
 Reference value :  1.00009e-05
 Reference value :  1.00016e-05
 Reference value :  1.00031e-05
 Reference value :  1.00049e-05
 Reference value :  1.00063e-05
 Reference value :  1.00079e-05
 Reference value :  1.00111e-05
 Reference value :  1.00189e-05
 Reference value :  1.01266e-05
 Reference value :  1.02501e-05
 Reference value :  1.02502e-05
 Reference value :  1.02502e-05
 Reference value :  1.02503e-05
 Reference value :  1.02504e-05
 Reference value :  1.02511e-05
 Reference value :  1.02520e-05
 Reference value :  1.02532e-05
 Reference value :  1.02538e-05
 Reference value :  1.02549e-05
 Reference value :  1.02563e-05
 Reference value :  1.02700e-05
 Reference value :  1.05000e-05
 Reference value :  1.05001e-05
 Reference value :  1.05003e-05
 Reference value :  1.05012e-05
 Reference value :  1.05026e-05
 Reference value :  1.05036e-05
 Reference value :  1.05052e-05
 Reference value :  1.05073e-05
 Reference value :  1.05103e-05
 Reference value :  1.05119e-05
 Reference value :  1.05134e-05
 Reference value :  1.05145e-05
 Reference value :  1.05156e-05
 Reference value :  1.05165e-05
 Reference value :  1.05187e-05
 Reference value :  1.05243e-05
 Reference value :  1.05508e-05
 Reference value :  1.06263e-05
 Reference value :  1.07501e-05
 Reference value :  1.07501e-05
 Reference value :  1.07502e-05
 Reference value :  1.07503e-05
 Reference value :  1.07511e-05
 Reference value :  1.07520e-05
 Reference value :  1.07532e-05
 Reference value :  1.07538e-05
 Reference value :  1.07550e-05
 Reference value :  1.07596e-05
 Reference value :  1.08118e-05
 Reference value :  1.10000e-05
 Reference value :  1.10002e-05
 Reference value :  1.10009e-05
 Reference value :  1.10021e-05
 Reference value :  1.10036e-05
 Reference value :  1.10057e-05
 Reference value :  1.10063e-05
 Reference value :  1.10079e-05
 Reference value :  1.10111e-05
 Reference value :  1.10261e-05
 Reference value :  1.11269e-05
 Reference value :  1.12501e-05
 Reference value :  1.12502e-05
 Reference value :  1.12503e-05
 Reference value :  1.12511e-05
 Reference value :  1.12520e-05
 Reference value :  1.12538e-05
 Reference value :  1.12555e-05
 Reference value :  1.12590e-05
 Reference value :  1.12811e-05
 Reference value :  1.15000e-05
 Reference value :  1.15001e-05
 Reference value :  1.15003e-05
 Reference value :  1.15009e-05
 Reference value :  1.15016e-05
 Reference value :  1.15031e-05
 Reference value :  1.15047e-05
 Reference value :  1.15058e-05
 Reference value :  1.15087e-05
 Reference value :  1.15119e-05
 Reference value :  1.15145e-05
 Reference value :  1.15165e-05
 Reference value :  1.15187e-05
 Reference value :  1.15243e-05
 Reference value :  1.15339e-05
 Reference value :  1.15479e-05
 Reference value :  1.15530e-05
 Reference value :  1.15637e-05
 Reference value :  1.15772e-05
 Reference value :  1.15909e-05
 Reference value :  1.16204e-05
 Reference value :  1.16718e-05
 Reference value :  1.17399e-05
 Reference value :  1.17501e-05
 Reference value :  1.17502e-05
 Reference value :  1.17502e-05
 Reference value :  1.17503e-05
 Reference value :  1.17507e-05
 Reference value :  1.17516e-05
 Reference value :  1.17525e-05
 Reference value :  1.17537e-05
 Reference value :  1.17550e-05
 Reference value :  1.17565e-05
 Reference value :  1.17625e-05
 Reference value :  1.18125e-05
 Reference value :  1.18950e-05
 Reference value :  1.20000e-05
 Reference value :  1.20001e-05
 Reference value :  1.20002e-05
 Reference value :  1.20009e-05
 Reference value :  1.20021e-05
 Reference value :  1.20031e-05
 Reference value :  1.20049e-05
 Reference value :  1.20063e-05
 Reference value :  1.20079e-05
 Reference value :  1.20098e-05
 Reference value :  1.20190e-05
 Reference value :  1.21643e-05
 Reference value :  1.22501e-05
 Reference value :  1.22502e-05
 Reference value :  1.22507e-05
 Reference value :  1.22520e-05
 Reference value :  1.22538e-05
 Reference value :  1.22549e-05
 Reference value :  1.22564e-05
 Reference value :  1.22590e-05
 Reference value :  1.22700e-05
 Reference value :  1.24362e-05
 Reference value :  1.25000e-05
 Reference value :  1.25001e-05
 Reference value :  1.25002e-05
 Reference value :  1.25009e-05
 Reference value :  1.25016e-05
 Reference value :  1.25026e-05
 Reference value :  1.25031e-05
 Reference value :  1.25042e-05
 Reference value :  1.25052e-05
 Reference value :  1.25065e-05
 Reference value :  1.25087e-05
 Reference value :  1.25103e-05
 Reference value :  1.25119e-05
 Reference value :  1.25145e-05
 Reference value :  1.25165e-05
 Reference value :  1.25186e-05
 Reference value :  1.25243e-05
 Reference value :  1.25304e-05
 Reference value :  1.25370e-05
 Reference value :  1.25550e-05
 Reference value :  1.26193e-05
 Reference value :  1.27501e-05
 Reference value :  1.27502e-05
 Reference value :  1.27503e-05
 Reference value :  1.27507e-05
 Reference value :  1.27516e-05
 Reference value :  1.27525e-05
 Reference value :  1.27537e-05
 Reference value :  1.27550e-05
 Reference value :  1.27565e-05
 Reference value :  1.27626e-05
 Reference value :  1.27859e-05
 Reference value :  1.30000e-05
 Reference value :  1.30001e-05
 Reference value :  1.30001e-05
 Reference value :  1.30003e-05
 Reference value :  1.30009e-05
 Reference value :  1.30016e-05
 Reference value :  1.30025e-05
 Reference value :  1.30030e-05
 Reference value :  1.30041e-05
 Reference value :  1.30062e-05
 Reference value :  1.30089e-05
 Reference value :  1.30111e-05
 Reference value :  1.30404e-05
 Reference value :  1.32501e-05
 Reference value :  1.32502e-05
 Reference value :  1.32503e-05
 Reference value :  1.32511e-05
 Reference value :  1.32520e-05
 Reference value :  1.32538e-05
 Reference value :  1.32549e-05
 Reference value :  1.32562e-05
 Reference value :  1.32589e-05
 Reference value :  1.32679e-05
 Reference value :  1.33361e-05
 Reference value :  1.35000e-05
 Reference value :  1.35001e-05
 Reference value :  1.35005e-05
 Reference value :  1.35016e-05
 Reference value :  1.35031e-05
 Reference value :  1.35047e-05
 Reference value :  1.35057e-05
 Reference value :  1.35081e-05
 Reference value :  1.35101e-05
 Reference value :  1.35120e-05
 Reference value :  1.35137e-05
 Reference value :  1.35152e-05
 Reference value :  1.35180e-05
 Reference value :  1.35207e-05
 Reference value :  1.35312e-05
 Reference value :  1.35442e-05
 Reference value :  1.35624e-05
 Reference value :  1.35881e-05
 Reference value :  1.36043e-05
 Reference value :  1.36713e-05
 Reference value :  1.37501e-05
 Reference value :  1.37502e-05
 Reference value :  1.37504e-05
 Reference value :  1.37516e-05
 Reference value :  1.37525e-05
 Reference value :  1.37538e-05
 Reference value :  1.37550e-05
 Reference value :  1.37595e-05
 Reference value :  1.37848e-05
 Reference value :  1.40000e-05
 Reference value :  1.40001e-05
 Reference value :  1.40001e-05
 Reference value :  1.40003e-05
 Reference value :  1.40009e-05
 Reference value :  1.40016e-05
 Reference value :  1.40030e-05
 Reference value :  1.40049e-05
 Reference value :  1.40062e-05
 Reference value :  1.40089e-05
 Reference value :  1.40122e-05
 Reference value :  1.40405e-05
 Reference value :  1.42501e-05
 Reference value :  1.42502e-05
 Reference value :  1.42503e-05
 Reference value :  1.42507e-05
 Reference value :  1.42520e-05
 Reference value :  1.42532e-05
 Reference value :  1.42544e-05
 Reference value :  1.42555e-05
 Reference value :  1.42562e-05
 Reference value :  1.42589e-05
 Reference value :  1.42679e-05
 Reference value :  1.43363e-05
 Reference value :  1.45000e-05
 Reference value :  1.45001e-05
 Reference value :  1.45002e-05
 Reference value :  1.45005e-05
 Reference value :  1.45012e-05
 Reference value :  1.45026e-05
 Reference value :  1.45036e-05
 Reference value :  1.45052e-05
 Reference value :  1.45071e-05
 Reference value :  1.45092e-05
 Reference value :  1.45110e-05
 Reference value :  1.45130e-05
 Reference value :  1.45144e-05
 Reference value :  1.45152e-05
 Reference value :  1.45180e-05
 Reference value :  1.45226e-05
 Reference value :  1.45308e-05
 Reference value :  1.45722e-05
 Reference value :  1.46286e-05
 Reference value :  1.47501e-05
 Reference value :  1.47502e-05
 Reference value :  1.47507e-05
 Reference value :  1.47525e-05
 Reference value :  1.47538e-05
 Reference value :  1.47564e-05
 Reference value :  1.48105e-05
 Reference value :  1.50001e-05
 Reference value :  1.50002e-05
 Reference value :  1.50012e-05
 Reference value :  1.50025e-05
 Reference value :  1.50041e-05
 Reference value :  1.50062e-05
 Reference value :  1.50099e-05
 Reference value :  1.50262e-05
 Reference value :  1.52501e-05
 Reference value :  1.52502e-05
 Reference value :  1.52504e-05
 Reference value :  1.52520e-05
 Reference value :  1.52538e-05
 Reference value :  1.52555e-05
 Reference value :  1.52579e-05
 Reference value :  1.52647e-05
 Reference value :  1.54051e-05
 Reference value :  1.55015e-05
 Reference value :  1.55046e-05
 Reference value :  1.55061e-05
 Reference value :  1.55090e-05
 Reference value :  1.55113e-05
 Reference value :  1.55123e-05
 Reference value :  1.55143e-05
 Reference value :  1.55161e-05
 Reference value :  1.55191e-05
 Reference value :  1.55233e-05
 Reference value :  1.55356e-05
 Reference value :  1.55994e-05
 Reference value :  1.56979e-05
 Reference value :  1.57501e-05
 Reference value :  1.57502e-05
 Reference value :  1.57503e-05
 Reference value :  1.57511e-05
 Reference value :  1.57520e-05
 Reference value :  1.57532e-05
 Reference value :  1.57537e-05
 Reference value :  1.57549e-05
 Reference value :  1.57576e-05
 Reference value :  1.57618e-05
 Reference value :  1.57830e-05
 Reference value :  1.59529e-05
 Reference value :  1.60000e-05
 Reference value :  1.60001e-05
 Reference value :  1.60002e-05
 Reference value :  1.60005e-05
 Reference value :  1.60009e-05
 Reference value :  1.60016e-05
 Reference value :  1.60025e-05
 Reference value :  1.60030e-05
 Reference value :  1.60041e-05
 Reference value :  1.60056e-05
 Reference value :  1.60062e-05
 Reference value :  1.60079e-05
 Reference value :  1.60111e-05
 Reference value :  1.60262e-05
 Reference value :  1.62404e-05
 Reference value :  1.62501e-05
 Reference value :  1.62502e-05
 Reference value :  1.62507e-05
 Reference value :  1.62520e-05
 Reference value :  1.62538e-05
 Reference value :  1.62549e-05
 Reference value :  1.62562e-05
 Reference value :  1.62589e-05
 Reference value :  1.62742e-05
 Reference value :  1.65000e-05
 Reference value :  1.65001e-05
 Reference value :  1.65002e-05
 Reference value :  1.65009e-05
 Reference value :  1.65021e-05
 Reference value :  1.65036e-05
 Reference value :  1.65047e-05
 Reference value :  1.65057e-05
 Reference value :  1.65077e-05
 Reference value :  1.65093e-05
 Reference value :  1.65109e-05
 Reference value :  1.65157e-05
 Reference value :  1.65232e-05
 Reference value :  1.65286e-05
 Reference value :  1.65344e-05
 Reference value :  1.65486e-05
 Reference value :  1.65984e-05
 Reference value :  1.67501e-05
 Reference value :  1.67501e-05
 Reference value :  1.67502e-05
 Reference value :  1.67503e-05
 Reference value :  1.67504e-05
 Reference value :  1.67516e-05
 Reference value :  1.67525e-05
 Reference value :  1.67539e-05
 Reference value :  1.67558e-05
 Reference value :  1.67584e-05
 Reference value :  1.67668e-05
 Reference value :  1.68193e-05
 Reference value :  1.70000e-05
 Reference value :  1.70000e-05
 Reference value :  1.70000e-05
 Reference value :  1.70000e-05
 Reference value :  1.70001e-05
 Reference value :  1.70004e-05
 Reference value :  1.70020e-05
 Reference value :  1.70036e-05
 Reference value :  1.70052e-05
 Reference value :  1.70079e-05
 Reference value :  1.70229e-05
 Reference value :  1.70289e-05
 Reference value :  1.70368e-05
 Reference value :  1.70466e-05
 Reference value :  1.70615e-05
 Reference value :  1.71075e-05
 Reference value :  1.72501e-05
 Reference value :  1.72502e-05
 Reference value :  1.72507e-05
 Reference value :  1.72520e-05
 Reference value :  1.72538e-05
 Reference value :  1.72556e-05
 Reference value :  1.72595e-05
 Reference value :  1.72843e-05
 Reference value :  1.75000e-05
 Reference value :  1.75001e-05
 Reference value :  1.75002e-05
 Reference value :  1.75009e-05
 Reference value :  1.75021e-05
 Reference value :  1.75031e-05
 Reference value :  1.75042e-05
 Reference value :  1.75070e-05
 Reference value :  1.75099e-05
 Reference value :  1.75126e-05
 Reference value :  1.75179e-05
 Reference value :  1.75737e-05
 Reference value :  1.77501e-05
 Reference value :  1.77502e-05
 Reference value :  1.77504e-05
 Reference value :  1.77516e-05
 Reference value :  1.77525e-05
 Reference value :  1.77538e-05
 Reference value :  1.77549e-05
 Reference value :  1.77563e-05
 Reference value :  1.77612e-05
 Reference value :  1.78027e-05
 Reference value :  1.80000e-05
 Reference value :  1.80011e-05
 Reference value :  1.80044e-05
 Reference value :  1.80064e-05
 Reference value :  1.80097e-05
 Reference value :  1.80116e-05
 Reference value :  1.80129e-05
 Reference value :  1.80157e-05
 Reference value :  1.80184e-05
 Reference value :  1.80237e-05
 Reference value :  1.80462e-05
 Reference value :  1.82218e-05
 Reference value :  1.82502e-05
 Reference value :  1.82503e-05
 Reference value :  1.82507e-05
 Reference value :  1.82520e-05
 Reference value :  1.82531e-05
 Reference value :  1.82543e-05
 Reference value :  1.82564e-05
 Reference value :  1.82648e-05
 Reference value :  1.83451e-05
 Reference value :  1.85000e-05
 Reference value :  1.85001e-05
 Reference value :  1.85003e-05
 Reference value :  1.85012e-05
 Reference value :  1.85031e-05
 Reference value :  1.85057e-05
 Reference value :  1.85071e-05
 Reference value :  1.85089e-05
 Reference value :  1.85121e-05
 Reference value :  1.85416e-05
 Reference value :  1.87501e-05
 Reference value :  1.87502e-05
 Reference value :  1.87507e-05
 Reference value :  1.87520e-05
 Reference value :  1.87538e-05
 Reference value :  1.87555e-05
 Reference value :  1.87590e-05
 Reference value :  1.88023e-05
 Reference value :  1.90000e-05
 Reference value :  1.90001e-05
 Reference value :  1.90005e-05
 Reference value :  1.90012e-05
 Reference value :  1.90021e-05
 Reference value :  1.90031e-05
 Reference value :  1.90047e-05
 Reference value :  1.90073e-05
 Reference value :  1.90119e-05
 Reference value :  1.90156e-05
 Reference value :  1.90187e-05
 Reference value :  1.90291e-05
 Reference value :  1.91266e-05
 Reference value :  1.92501e-05
 Reference value :  1.92502e-05
 Reference value :  1.92507e-05
 Reference value :  1.92520e-05
 Reference value :  1.92538e-05
 Reference value :  1.92550e-05
 Reference value :  1.92597e-05
 Reference value :  1.92856e-05
 Reference value :  1.95000e-05
 Reference value :  1.95005e-05
 Reference value :  1.95021e-05
 Reference value :  1.95036e-05
 Reference value :  1.95057e-05
 Reference value :  1.95070e-05
 Reference value :  1.95089e-05
 Reference value :  1.95143e-05
 Reference value :  1.96325e-05
 Reference value :  1.97502e-05
 Reference value :  1.97503e-05
 Reference value :  1.97516e-05
 Reference value :  1.97538e-05
 Reference value :  1.97564e-05
 Reference value :  1.97645e-05
 Reference value :  1.98480e-05
 Reference value :  2.00000e-05
 Reference value :  2.00001e-05
 Reference value :  2.00002e-05
 Reference value :  2.00009e-05
 Reference value :  2.00016e-05
 Reference value :  2.00031e-05
 Reference value :  2.00042e-05
 Reference value :  2.00052e-05
 Reference value :  2.00073e-05
 Reference value :  2.00103e-05
 Reference value :  2.00134e-05
 Reference value :  2.00156e-05
 Reference value :  2.00176e-05
 Reference value :  2.00219e-05
 Reference value :  2.00405e-05
 Reference value :  2.00519e-05
 Reference value :  2.00671e-05
 Reference value :  2.00947e-05
 Reference value :  2.01784e-05
 Reference value :  2.02502e-05
 Reference value :  2.02503e-05
 Reference value :  2.02511e-05
 Reference value :  2.02525e-05
 Reference value :  2.02537e-05
 Reference value :  2.02557e-05
 Reference value :  2.02597e-05
 Reference value :  2.02861e-05
 Reference value :  2.03788e-05
 Reference value :  2.04185e-05
 Reference value :  2.04716e-05
 Reference value :  2.05001e-05
 Reference value :  2.05004e-05
 Reference value :  2.05015e-05
 Reference value :  2.05029e-05
 Reference value :  2.05045e-05
 Reference value :  2.05061e-05
 Reference value :  2.05092e-05
 Reference value :  2.05113e-05
 Reference value :  2.05281e-05
 Reference value :  2.07501e-05
 Reference value :  2.07502e-05
 Reference value :  2.07503e-05
 Reference value :  2.07511e-05
 Reference value :  2.07520e-05
 Reference value :  2.07537e-05
 Reference value :  2.07549e-05
 Reference value :  2.07562e-05
 Reference value :  2.07588e-05
 Reference value :  2.07691e-05
 Reference value :  2.08394e-05
 Reference value :  2.10000e-05
 Reference value :  2.10001e-05
 Reference value :  2.10002e-05
 Reference value :  2.10005e-05
 Reference value :  2.10012e-05
 Reference value :  2.10021e-05
 Reference value :  2.10031e-05
 Reference value :  2.10047e-05
 Reference value :  2.10058e-05
 Reference value :  2.10087e-05
 Reference value :  2.10103e-05
 Reference value :  2.10134e-05
 Reference value :  2.10156e-05
 Reference value :  2.10165e-05
 Reference value :  2.10187e-05
 Reference value :  2.10245e-05
 Reference value :  2.10309e-05
 Reference value :  2.10376e-05
 Reference value :  2.10481e-05
 Reference value :  2.10789e-05
 Reference value :  2.11443e-05
 Reference value :  2.12501e-05
 Reference value :  2.12502e-05
 Reference value :  2.12502e-05
 Reference value :  2.12504e-05
 Reference value :  2.12516e-05
 Reference value :  2.12525e-05
 Reference value :  2.12537e-05
 Reference value :  2.12557e-05
 Reference value :  2.12626e-05
 Reference value :  2.14728e-05
 Reference value :  2.15001e-05
 Reference value :  2.15002e-05
 Reference value :  2.15005e-05
 Reference value :  2.15016e-05
 Reference value :  2.15025e-05
 Reference value :  2.15030e-05
 Reference value :  2.15041e-05
 Reference value :  2.15056e-05
 Reference value :  2.15062e-05
 Reference value :  2.15079e-05
 Reference value :  2.15099e-05
 Reference value :  2.15145e-05
 Reference value :  2.15688e-05
 Reference value :  2.17501e-05
 Reference value :  2.17502e-05
 Reference value :  2.17503e-05
 Reference value :  2.17516e-05
 Reference value :  2.17532e-05
 Reference value :  2.17549e-05
 Reference value :  2.17579e-05
 Reference value :  2.17845e-05
 Reference value :  2.20015e-05
 Reference value :  2.20061e-05
 Reference value :  2.20090e-05
 Reference value :  2.20101e-05
 Reference value :  2.20123e-05
 Reference value :  2.20151e-05
 Reference value :  2.20171e-05
 Reference value :  2.20202e-05
 Reference value :  2.20423e-05
 Reference value :  2.20544e-05
 Reference value :  2.20588e-05
 Reference value :  2.20803e-05
 Reference value :  2.21031e-05
 Reference value :  2.21217e-05
 Reference value :  2.21599e-05
 Reference value :  2.22208e-05
 Reference value :  2.22501e-05
 Reference value :  2.22502e-05
 Reference value :  2.22504e-05
 Reference value :  2.22516e-05
 Reference value :  2.22525e-05
 Reference value :  2.22537e-05
 Reference value :  2.22555e-05
 Reference value :  2.22618e-05
 Reference value :  2.22830e-05
 Reference value :  2.25000e-05
 Reference value :  2.25001e-05
 Reference value :  2.25001e-05
 Reference value :  2.25002e-05
 Reference value :  2.25009e-05
 Reference value :  2.25016e-05
 Reference value :  2.25025e-05
 Reference value :  2.25036e-05
 Reference value :  2.25056e-05
 Reference value :  2.25062e-05
 Reference value :  2.25079e-05
 Reference value :  2.25111e-05
 Reference value :  2.25262e-05
 Reference value :  2.27404e-05
 Reference value :  2.27501e-05
 Reference value :  2.27502e-05
 Reference value :  2.27503e-05
 Reference value :  2.27511e-05
 Reference value :  2.27520e-05
 Reference value :  2.27532e-05
 Reference value :  2.27544e-05
 Reference value :  2.27555e-05
 Reference value :  2.27570e-05
 Reference value :  2.27604e-05
 Reference value :  2.27679e-05
 Reference value :  2.28367e-05
 Reference value :  2.30015e-05
 Reference value :  2.30045e-05
 Reference value :  2.30061e-05
 Reference value :  2.30089e-05
 Reference value :  2.30113e-05
 Reference value :  2.30123e-05
 Reference value :  2.30143e-05
 Reference value :  2.30161e-05
 Reference value :  2.30191e-05
 Reference value :  2.30239e-05
 Reference value :  2.30302e-05
 Reference value :  2.30412e-05
 Reference value :  2.30629e-05
 Reference value :  2.31155e-05
 Reference value :  2.31641e-05
 Reference value :  2.32501e-05
 Reference value :  2.32502e-05
 Reference value :  2.32503e-05
 Reference value :  2.32516e-05
 Reference value :  2.32532e-05
 Reference value :  2.32543e-05
 Reference value :  2.32555e-05
 Reference value :  2.32591e-05
 Reference value :  2.33072e-05
 Reference value :  2.35000e-05
 Reference value :  2.35001e-05
 Reference value :  2.35003e-05
 Reference value :  2.35012e-05
 Reference value :  2.35025e-05
 Reference value :  2.35036e-05
 Reference value :  2.35049e-05
 Reference value :  2.35062e-05
 Reference value :  2.35079e-05
 Reference value :  2.35111e-05
 Reference value :  2.35262e-05
 Reference value :  2.37405e-05
 Reference value :  2.37502e-05
 Reference value :  2.37503e-05
 Reference value :  2.37507e-05
 Reference value :  2.37520e-05
 Reference value :  2.37538e-05
 Reference value :  2.37549e-05
 Reference value :  2.37562e-05
 Reference value :  2.37589e-05
 Reference value :  2.37648e-05
 Reference value :  2.37845e-05
 Reference value :  2.40000e-05
 Reference value :  2.40001e-05
 Reference value :  2.40001e-05
 Reference value :  2.40005e-05
 Reference value :  2.40012e-05
 Reference value :  2.40026e-05
 Reference value :  2.40036e-05
 Reference value :  2.40047e-05
 Reference value :  2.40057e-05
 Reference value :  2.40081e-05
 Reference value :  2.40101e-05
 Reference value :  2.40120e-05
 Reference value :  2.40137e-05
 Reference value :  2.40153e-05
 Reference value :  2.40181e-05
 Reference value :  2.40263e-05
 Reference value :  2.40739e-05
 Reference value :  2.42501e-05
 Reference value :  2.42502e-05
 Reference value :  2.42504e-05
 Reference value :  2.42520e-05
 Reference value :  2.42538e-05
 Reference value :  2.42556e-05
 Reference value :  2.42624e-05
 Reference value :  2.43105e-05
 Reference value :  2.44922e-05
 Reference value :  2.45001e-05
 Reference value :  2.45002e-05
 Reference value :  2.45005e-05
 Reference value :  2.45012e-05
 Reference value :  2.45025e-05
 Reference value :  2.45036e-05
 Reference value :  2.45056e-05
 Reference value :  2.45062e-05
 Reference value :  2.45089e-05
 Reference value :  2.45111e-05
 Reference value :  2.45404e-05
 Reference value :  2.47501e-05
 Reference value :  2.47502e-05
 Reference value :  2.47503e-05
 Reference value :  2.47516e-05
 Reference value :  2.47532e-05
 Reference value :  2.47544e-05
 Reference value :  2.47562e-05
 Reference value :  2.47604e-05
 Reference value :  2.47742e-05
 Reference value :  2.49022e-05
 Reference value :  2.50001e-05
 Reference value :  2.50002e-05
 Reference value :  2.50012e-05
 Reference value :  2.50031e-05
 Reference value :  2.50041e-05
 Reference value :  2.50052e-05
 Reference value :  2.50070e-05
 Reference value :  2.50086e-05
 Reference value :  2.50101e-05
 Reference value :  2.50118e-05
 Reference value :  2.50150e-05
 Reference value :  2.50191e-05
 Reference value :  2.50239e-05
 Reference value :  2.50321e-05
 Reference value :  2.50534e-05
 Reference value :  2.50702e-05
 Reference value :  2.52501e-05
 Reference value :  2.52502e-05
 Reference value :  2.52503e-05
 Reference value :  2.52507e-05
 Reference value :  2.52520e-05
 Reference value :  2.52532e-05
 Reference value :  2.52548e-05
 Reference value :  2.52584e-05
 Reference value :  2.52631e-05
 Reference value :  2.52892e-05
 Reference value :  2.54983e-05
 Reference value :  2.55000e-05
 Reference value :  2.55000e-05
 Reference value :  2.55000e-05
 Reference value :  2.55000e-05
 Reference value :  2.55001e-05
 Reference value :  2.55002e-05
 Reference value :  2.55007e-05
 Reference value :  2.55020e-05
 Reference value :  2.55031e-05
 Reference value :  2.55036e-05
 Reference value :  2.55046e-05
 Reference value :  2.55058e-05
 Reference value :  2.55123e-05
 Reference value :  2.55229e-05
 Reference value :  2.55289e-05
 Reference value :  2.55368e-05
 Reference value :  2.55434e-05
 Reference value :  2.55556e-05
 Reference value :  2.55783e-05
 Reference value :  2.56609e-05
 Reference value :  2.57501e-05
 Reference value :  2.57502e-05
 Reference value :  2.57503e-05
 Reference value :  2.57511e-05
 Reference value :  2.57520e-05
 Reference value :  2.57532e-05
 Reference value :  2.57538e-05
 Reference value :  2.57550e-05
 Reference value :  2.57564e-05
 Reference value :  2.57623e-05
 Reference value :  2.58094e-05
 Reference value :  2.60000e-05
 Reference value :  2.60000e-05
 Reference value :  2.60001e-05
 Reference value :  2.60002e-05
 Reference value :  2.60005e-05
 Reference value :  2.60012e-05
 Reference value :  2.60021e-05
 Reference value :  2.60031e-05
 Reference value :  2.60042e-05
 Reference value :  2.60070e-05
 Reference value :  2.60099e-05
 Reference value :  2.60126e-05
 Reference value :  2.60179e-05
 Reference value :  2.60486e-05
 Reference value :  2.62245e-05
 Reference value :  2.62501e-05
 Reference value :  2.62502e-05
 Reference value :  2.62504e-05
 Reference value :  2.62516e-05
 Reference value :  2.62520e-05
 Reference value :  2.62532e-05
 Reference value :  2.62538e-05
 Reference value :  2.62549e-05
 Reference value :  2.62563e-05
 Reference value :  2.62612e-05
 Reference value :  2.63027e-05
 Reference value :  2.65000e-05
 Reference value :  2.65011e-05
 Reference value :  2.65044e-05
 Reference value :  2.65064e-05
 Reference value :  2.65085e-05
 Reference value :  2.65116e-05
 Reference value :  2.65129e-05
 Reference value :  2.65170e-05
 Reference value :  2.65212e-05
 Reference value :  2.65369e-05
 Reference value :  2.66398e-05
 Reference value :  2.67501e-05
 Reference value :  2.67502e-05
 Reference value :  2.67503e-05
 Reference value :  2.67511e-05
 Reference value :  2.67525e-05
 Reference value :  2.67536e-05
 Reference value :  2.67549e-05
 Reference value :  2.67575e-05
 Reference value :  2.67711e-05
 Reference value :  2.69279e-05
 Reference value :  2.70000e-05
 Reference value :  2.70001e-05
 Reference value :  2.70002e-05
 Reference value :  2.70009e-05
 Reference value :  2.70016e-05
 Reference value :  2.70031e-05
 Reference value :  2.70049e-05
 Reference value :  2.70063e-05
 Reference value :  2.70080e-05
 Reference value :  2.70099e-05
 Reference value :  2.70121e-05
 Reference value :  2.70416e-05
 Reference value :  2.72501e-05
 Reference value :  2.72502e-05
 Reference value :  2.72503e-05
 Reference value :  2.72507e-05
 Reference value :  2.72516e-05
 Reference value :  2.72532e-05
 Reference value :  2.72543e-05
 Reference value :  2.72555e-05
 Reference value :  2.72572e-05
 Reference value :  2.72806e-05
 Reference value :  2.75000e-05
 Reference value :  2.75001e-05
 Reference value :  2.75002e-05
 Reference value :  2.75005e-05
 Reference value :  2.75012e-05
 Reference value :  2.75021e-05
 Reference value :  2.75031e-05
 Reference value :  2.75042e-05
 Reference value :  2.75052e-05
 Reference value :  2.75073e-05
 Reference value :  2.75103e-05
 Reference value :  2.75134e-05
 Reference value :  2.75145e-05
 Reference value :  2.75165e-05
 Reference value :  2.75187e-05
 Reference value :  2.75243e-05
 Reference value :  2.75509e-05
 Reference value :  2.76266e-05
 Reference value :  2.77501e-05
 Reference value :  2.77502e-05
 Reference value :  2.77502e-05
 Reference value :  2.77504e-05
 Reference value :  2.77516e-05
 Reference value :  2.77525e-05
 Reference value :  2.77538e-05
 Reference value :  2.77550e-05
 Reference value :  2.77580e-05
 Reference value :  2.77658e-05
 Reference value :  2.78645e-05
 Reference value :  2.80005e-05
 Reference value :  2.80021e-05
 Reference value :  2.80031e-05
 Reference value :  2.80048e-05
 Reference value :  2.80063e-05
 Reference value :  2.80080e-05
 Reference value :  2.80098e-05
 Reference value :  2.80121e-05
 Reference value :  2.80265e-05
 Reference value :  2.81323e-05
 Reference value :  2.82501e-05
 Reference value :  2.82502e-05
 Reference value :  2.82502e-05
 Reference value :  2.82503e-05
 Reference value :  2.82507e-05
 Reference value :  2.82516e-05
 Reference value :  2.82520e-05
 Reference value :  2.82532e-05
 Reference value :  2.82538e-05
 Reference value :  2.82549e-05
 Reference value :  2.82564e-05
 Reference value :  2.82590e-05
 Reference value :  2.82645e-05
 Reference value :  2.82812e-05
 Reference value :  2.84371e-05
 Reference value :  2.85000e-05
 Reference value :  2.85001e-05
 Reference value :  2.85002e-05
 Reference value :  2.85009e-05
 Reference value :  2.85016e-05
 Reference value :  2.85031e-05
 Reference value :  2.85042e-05
 Reference value :  2.85052e-05
 Reference value :  2.85073e-05
 Reference value :  2.85103e-05
 Reference value :  2.85134e-05
 Reference value :  2.85156e-05
 Reference value :  2.85176e-05
 Reference value :  2.85199e-05
 Reference value :  2.85291e-05
 Reference value :  2.85477e-05
 Reference value :  2.85573e-05
 Reference value :  2.85678e-05
 Reference value :  2.85800e-05
 Reference value :  2.86299e-05
 Reference value :  2.87501e-05
 Reference value :  2.87502e-05
 Reference value :  2.87504e-05
 Reference value :  2.87520e-05
 Reference value :  2.87537e-05
 Reference value :  2.87565e-05
 Reference value :  2.87861e-05
 Reference value :  2.88520e-05
 Reference value :  2.88979e-05
 Reference value :  2.90007e-05
 Reference value :  2.90028e-05
 Reference value :  2.90041e-05
 Reference value :  2.90062e-05
 Reference value :  2.90100e-05
 Reference value :  2.90245e-05
 Reference value :  2.91092e-05
 Reference value :  2.92501e-05
 Reference value :  2.92502e-05
 Reference value :  2.92503e-05
 Reference value :  2.92511e-05
 Reference value :  2.92525e-05
 Reference value :  2.92537e-05
 Reference value :  2.92549e-05
 Reference value :  2.92562e-05
 Reference value :  2.92610e-05
 Reference value :  2.93395e-05
 Reference value :  2.95000e-05
 Reference value :  2.95001e-05
 Reference value :  2.95002e-05
 Reference value :  2.95009e-05
 Reference value :  2.95016e-05
 Reference value :  2.95031e-05
 Reference value :  2.95047e-05
 Reference value :  2.95065e-05
 Reference value :  2.95103e-05
 Reference value :  2.95145e-05
 Reference value :  2.95175e-05
 Reference value :  2.95237e-05
 Reference value :  2.95342e-05
 Reference value :  2.95452e-05
 Reference value :  2.95692e-05
 Reference value :  2.96716e-05
 Reference value :  2.97502e-05
 Reference value :  2.97503e-05
 Reference value :  2.97516e-05
 Reference value :  2.97532e-05
 Reference value :  2.97550e-05
 Reference value :  2.97597e-05
 Reference value :  2.98123e-05
 Reference value :  3.00000e-05
 Reference value :  3.00001e-05
 Reference value :  3.00009e-05
 Reference value :  3.00025e-05
 Reference value :  3.00041e-05
 Reference value :  3.00062e-05
 Reference value :  3.00099e-05
 Reference value :  3.00145e-05
 Reference value :  3.00404e-05
 Reference value :  3.02392e-05
 Reference value :  3.02501e-05
 Reference value :  3.02502e-05
 Reference value :  3.02502e-05
 Reference value :  3.02503e-05
 Reference value :  3.02507e-05
 Reference value :  3.02516e-05
 Reference value :  3.02520e-05
 Reference value :  3.02532e-05
 Reference value :  3.02544e-05
 Reference value :  3.02555e-05
 Reference value :  3.02562e-05
 Reference value :  3.02579e-05
 Reference value :  3.02621e-05
 Reference value :  3.03017e-05
 Reference value :  3.05015e-05
 Reference value :  3.05046e-05
 Reference value :  3.05061e-05
 Reference value :  3.05090e-05
 Reference value :  3.05113e-05
 Reference value :  3.05123e-05
 Reference value :  3.05143e-05
 Reference value :  3.05161e-05
 Reference value :  3.05190e-05
 Reference value :  3.05275e-05
 Reference value :  3.05418e-05
 Reference value :  3.05541e-05
 Reference value :  3.05586e-05
 Reference value :  3.05689e-05
 Reference value :  3.05792e-05
 Reference value :  3.05913e-05
 Reference value :  3.06026e-05
 Reference value :  3.06158e-05
 Reference value :  3.06304e-05
 Reference value :  3.06756e-05
 Reference value :  3.07249e-05
 Reference value :  3.07501e-05
 Reference value :  3.07502e-05
 Reference value :  3.07503e-05
 Reference value :  3.07507e-05
 Reference value :  3.07516e-05
 Reference value :  3.07520e-05
 Reference value :  3.07532e-05
 Reference value :  3.07537e-05
 Reference value :  3.07549e-05
 Reference value :  3.07576e-05
 Reference value :  3.07707e-05
 Reference value :  3.09498e-05
 Reference value :  3.10000e-05
 Reference value :  3.10001e-05
 Reference value :  3.10003e-05
 Reference value :  3.10009e-05
 Reference value :  3.10016e-05
 Reference value :  3.10030e-05
 Reference value :  3.10049e-05
 Reference value :  3.10062e-05
 Reference value :  3.10079e-05
 Reference value :  3.10099e-05
 Reference value :  3.10145e-05
 Reference value :  3.10691e-05
 Reference value :  3.12501e-05
 Reference value :  3.12502e-05
 Reference value :  3.12504e-05
 Reference value :  3.12520e-05
 Reference value :  3.12538e-05
 Reference value :  3.12555e-05
 Reference value :  3.12570e-05
 Reference value :  3.12604e-05
 Reference value :  3.12679e-05
 Reference value :  3.13366e-05
 Reference value :  3.15000e-05
 Reference value :  3.15001e-05
 Reference value :  3.15002e-05
 Reference value :  3.15005e-05
 Reference value :  3.15012e-05
 Reference value :  3.15021e-05
 Reference value :  3.15031e-05
 Reference value :  3.15047e-05
 Reference value :  3.15064e-05
 Reference value :  3.15081e-05
 Reference value :  3.15101e-05
 Reference value :  3.15120e-05
 Reference value :  3.15137e-05
 Reference value :  3.15152e-05
 Reference value :  3.15180e-05
 Reference value :  3.15256e-05
 Reference value :  3.15309e-05
 Reference value :  3.15494e-05
 Reference value :  3.15762e-05
 Reference value :  3.16086e-05
 Reference value :  3.16783e-05
 Reference value :  3.17463e-05
 Reference value :  3.17501e-05
 Reference value :  3.17502e-05
 Reference value :  3.17504e-05
 Reference value :  3.17520e-05
 Reference value :  3.17538e-05
 Reference value :  3.17564e-05
 Reference value :  3.17719e-05
 Reference value :  3.20000e-05
 Reference value :  3.20001e-05
 Reference value :  3.20009e-05
 Reference value :  3.20020e-05
 Reference value :  3.20030e-05
 Reference value :  3.20049e-05
 Reference value :  3.20062e-05
 Reference value :  3.20089e-05
 Reference value :  3.20191e-05
 Reference value :  3.22501e-05
 Reference value :  3.22503e-05
 Reference value :  3.22511e-05
 Reference value :  3.22525e-05
 Reference value :  3.22538e-05
 Reference value :  3.22555e-05
 Reference value :  3.22579e-05
 Reference value :  3.22647e-05
 Reference value :  3.23362e-05
 Reference value :  3.25000e-05
 Reference value :  3.25001e-05
 Reference value :  3.25005e-05
 Reference value :  3.25012e-05
 Reference value :  3.25021e-05
 Reference value :  3.25031e-05
 Reference value :  3.25047e-05
 Reference value :  3.25057e-05
 Reference value :  3.25081e-05
 Reference value :  3.25101e-05
 Reference value :  3.25120e-05
 Reference value :  3.25137e-05
 Reference value :  3.25153e-05
 Reference value :  3.25181e-05
 Reference value :  3.25243e-05
 Reference value :  3.25444e-05
 Reference value :  3.25672e-05
 Reference value :  3.25985e-05
 Reference value :  3.26912e-05
 Reference value :  3.27501e-05
 Reference value :  3.27502e-05
 Reference value :  3.27507e-05
 Reference value :  3.27520e-05
 Reference value :  3.27538e-05
 Reference value :  3.27550e-05
 Reference value :  3.27580e-05
 Reference value :  3.27724e-05
 Reference value :  3.29693e-05
 Reference value :  3.30000e-05
 Reference value :  3.30001e-05
 Reference value :  3.30002e-05
 Reference value :  3.30009e-05
 Reference value :  3.30016e-05
 Reference value :  3.30031e-05
 Reference value :  3.30049e-05
 Reference value :  3.30063e-05
 Reference value :  3.30079e-05
 Reference value :  3.30109e-05
 Reference value :  3.30265e-05
 Reference value :  3.32501e-05
 Reference value :  3.32502e-05
 Reference value :  3.32503e-05
 Reference value :  3.32511e-05
 Reference value :  3.32520e-05
 Reference value :  3.32532e-05
 Reference value :  3.32544e-05
 Reference value :  3.32555e-05
 Reference value :  3.32572e-05
 Reference value :  3.32644e-05
 Reference value :  3.33464e-05
 Reference value :  3.35011e-05
 Reference value :  3.35044e-05
 Reference value :  3.35064e-05
 Reference value :  3.35083e-05
 Reference value :  3.35103e-05
 Reference value :  3.35130e-05
 Reference value :  3.35244e-05
 Reference value :  3.36474e-05
 Reference value :  3.37501e-05
 Reference value :  3.37502e-05
 Reference value :  3.37503e-05
 Reference value :  3.37507e-05
 Reference value :  3.37516e-05
 Reference value :  3.37520e-05
 Reference value :  3.37531e-05
 Reference value :  3.37555e-05
 Reference value :  3.37581e-05
 Reference value :  3.37722e-05
 Reference value :  3.39336e-05
 Reference value :  3.40000e-05
 Reference value :  3.40000e-05
 Reference value :  3.40000e-05
 Reference value :  3.40000e-05
 Reference value :  3.40001e-05
 Reference value :  3.40001e-05
 Reference value :  3.40002e-05
 Reference value :  3.40007e-05
 Reference value :  3.40020e-05
 Reference value :  3.40031e-05
 Reference value :  3.40042e-05
 Reference value :  3.40052e-05
 Reference value :  3.40065e-05
 Reference value :  3.40123e-05
 Reference value :  3.40228e-05
 Reference value :  3.40290e-05
 Reference value :  3.40332e-05
 Reference value :  3.40403e-05
 Reference value :  3.40510e-05
 Reference value :  3.40613e-05
 Reference value :  3.40780e-05
 Reference value :  3.41289e-05
 Reference value :  3.42501e-05
 Reference value :  3.42501e-05
 Reference value :  3.42502e-05
 Reference value :  3.42503e-05
 Reference value :  3.42507e-05
 Reference value :  3.42516e-05
 Reference value :  3.42525e-05
 Reference value :  3.42538e-05
 Reference value :  3.42550e-05
 Reference value :  3.42564e-05
 Reference value :  3.42623e-05
 Reference value :  3.43094e-05
 Reference value :  3.45000e-05
 Reference value :  3.45001e-05
 Reference value :  3.45002e-05
 Reference value :  3.45005e-05
 Reference value :  3.45012e-05
 Reference value :  3.45021e-05
 Reference value :  3.45031e-05
 Reference value :  3.45049e-05
 Reference value :  3.45087e-05
 Reference value :  3.45113e-05
 Reference value :  3.45126e-05
 Reference value :  3.45161e-05
 Reference value :  3.45214e-05
 Reference value :  3.45486e-05
 Reference value :  3.47245e-05
 Reference value :  3.47501e-05
 Reference value :  3.47502e-05
 Reference value :  3.47503e-05
 Reference value :  3.47511e-05
 Reference value :  3.47520e-05
 Reference value :  3.47532e-05
 Reference value :  3.47538e-05
 Reference value :  3.47549e-05
 Reference value :  3.47563e-05
 Reference value :  3.47612e-05
 Reference value :  3.48027e-05
 Reference value :  3.50000e-05
 Reference value :  3.50001e-05
 Reference value :  3.50002e-05
 Reference value :  3.50005e-05
 Reference value :  3.50012e-05
 Reference value :  3.50021e-05
 Reference value :  3.50031e-05
 Reference value :  3.50042e-05
 Reference value :  3.50052e-05
 Reference value :  3.50065e-05
 Reference value :  3.50087e-05
 Reference value :  3.50103e-05
 Reference value :  3.50134e-05
 Reference value :  3.50156e-05
 Reference value :  3.50176e-05
 Reference value :  3.50199e-05
 Reference value :  3.50293e-05
 Reference value :  3.51259e-05
 Reference value :  3.52501e-05
 Reference value :  3.52502e-05
 Reference value :  3.52504e-05
 Reference value :  3.52516e-05
 Reference value :  3.52525e-05
 Reference value :  3.52538e-05
 Reference value :  3.52550e-05
 Reference value :  3.52580e-05
 Reference value :  3.52658e-05
 Reference value :  3.53119e-05
 Reference value :  3.55000e-05
 Reference value :  3.55001e-05
 Reference value :  3.55001e-05
 Reference value :  3.55003e-05
 Reference value :  3.55009e-05
 Reference value :  3.55016e-05
 Reference value :  3.55031e-05
 Reference value :  3.55049e-05
 Reference value :  3.55063e-05
 Reference value :  3.55079e-05
 Reference value :  3.55111e-05
 Reference value :  3.55405e-05
 Reference value :  3.57501e-05
 Reference value :  3.57502e-05
 Reference value :  3.57502e-05
 Reference value :  3.57504e-05
 Reference value :  3.57511e-05
 Reference value :  3.57520e-05
 Reference value :  3.57532e-05
 Reference value :  3.57538e-05
 Reference value :  3.57549e-05
 Reference value :  3.57563e-05
 Reference value :  3.57590e-05
 Reference value :  3.57645e-05
 Reference value :  3.57810e-05
 Reference value :  3.58472e-05
 Reference value :  3.60000e-05
 Reference value :  3.60011e-05
 Reference value :  3.60032e-05
 Reference value :  3.60043e-05
 Reference value :  3.60062e-05
 Reference value :  3.60094e-05
 Reference value :  3.60112e-05
 Reference value :  3.60139e-05
 Reference value :  3.60159e-05
 Reference value :  3.60179e-05
 Reference value :  3.60202e-05
 Reference value :  3.60284e-05
 Reference value :  3.60653e-05
 Reference value :  3.62501e-05
 Reference value :  3.62502e-05
 Reference value :  3.62504e-05
 Reference value :  3.62516e-05
 Reference value :  3.62525e-05
 Reference value :  3.62537e-05
 Reference value :  3.62549e-05
 Reference value :  3.62564e-05
 Reference value :  3.62616e-05
 Reference value :  3.62830e-05
 Reference value :  3.65000e-05
 Reference value :  3.65001e-05
 Reference value :  3.65002e-05
 Reference value :  3.65005e-05
 Reference value :  3.65012e-05
 Reference value :  3.65021e-05
 Reference value :  3.65031e-05
 Reference value :  3.65049e-05
 Reference value :  3.65063e-05
 Reference value :  3.65079e-05
 Reference value :  3.65109e-05
 Reference value :  3.65265e-05
 Reference value :  3.67501e-05
 Reference value :  3.67502e-05
 Reference value :  3.67502e-05
 Reference value :  3.67503e-05
 Reference value :  3.67511e-05
 Reference value :  3.67520e-05
 Reference value :  3.67532e-05
 Reference value :  3.67544e-05
 Reference value :  3.67555e-05
 Reference value :  3.67572e-05
 Reference value :  3.67645e-05
 Reference value :  3.68029e-05
 Reference value :  3.70000e-05
 Reference value :  3.70001e-05
 Reference value :  3.70001e-05
 Reference value :  3.70003e-05
 Reference value :  3.70009e-05
 Reference value :  3.70016e-05
 Reference value :  3.70026e-05
 Reference value :  3.70031e-05
 Reference value :  3.70042e-05
 Reference value :  3.70052e-05
 Reference value :  3.70065e-05
 Reference value :  3.70087e-05
 Reference value :  3.70103e-05
 Reference value :  3.70134e-05
 Reference value :  3.70145e-05
 Reference value :  3.70165e-05
 Reference value :  3.70187e-05
 Reference value :  3.70243e-05
 Reference value :  3.70415e-05
 Reference value :  3.70488e-05
 Reference value :  3.70589e-05
 Reference value :  3.70696e-05
 Reference value :  3.70890e-05
 Reference value :  3.71362e-05
 Reference value :  3.72254e-05
 Reference value :  3.72501e-05
 Reference value :  3.72502e-05
 Reference value :  3.72503e-05
 Reference value :  3.72511e-05
 Reference value :  3.72520e-05
 Reference value :  3.72532e-05
 Reference value :  3.72543e-05
 Reference value :  3.72557e-05
 Reference value :  3.72597e-05
 Reference value :  3.72727e-05
 Reference value :  3.73230e-05
 Reference value :  3.73365e-05
 Reference value :  3.73756e-05
 Reference value :  3.75000e-05
 Reference value :  3.75001e-05
 Reference value :  3.75001e-05
 Reference value :  3.75003e-05
 Reference value :  3.75009e-05
 Reference value :  3.75016e-05
 Reference value :  3.75026e-05
 Reference value :  3.75031e-05
 Reference value :  3.75036e-05
 Reference value :  3.75049e-05
 Reference value :  3.75063e-05
 Reference value :  3.75079e-05
 Reference value :  3.75098e-05
 Reference value :  3.75145e-05
 Reference value :  3.75407e-05
 Reference value :  3.77501e-05
 Reference value :  3.77502e-05
 Reference value :  3.77502e-05
 Reference value :  3.77504e-05
 Reference value :  3.77516e-05
 Reference value :  3.77525e-05
 Reference value :  3.77538e-05
 Reference value :  3.77549e-05
 Reference value :  3.77563e-05
 Reference value :  3.77590e-05
 Reference value :  3.77700e-05
 Reference value :  3.78475e-05
 Reference value :  3.80000e-05
 Reference value :  3.80001e-05
 Reference value :  3.80002e-05
 Reference value :  3.80005e-05
 Reference value :  3.80012e-05
 Reference value :  3.80021e-05
 Reference value :  3.80031e-05
 Reference value :  3.80042e-05
 Reference value :  3.80052e-05
 Reference value :  3.80065e-05
 Reference value :  3.80087e-05
 Reference value :  3.80103e-05
 Reference value :  3.80134e-05
 Reference value :  3.80145e-05
 Reference value :  3.80156e-05
 Reference value :  3.80165e-05
 Reference value :  3.80186e-05
 Reference value :  3.80216e-05
 Reference value :  3.80270e-05
 Reference value :  3.80341e-05
 Reference value :  3.80406e-05
 Reference value :  3.80483e-05
 Reference value :  3.80590e-05
 Reference value :  3.80716e-05
 Reference value :  3.81068e-05
 Reference value :  3.81945e-05
 Reference value :  3.82501e-05
 Reference value :  3.82502e-05
 Reference value :  3.82503e-05
 Reference value :  3.82507e-05
 Reference value :  3.82516e-05
 Reference value :  3.82520e-05
 Reference value :  3.82532e-05
 Reference value :  3.82537e-05
 Reference value :  3.82550e-05
 Reference value :  3.82565e-05
 Reference value :  3.82626e-05
 Reference value :  3.83126e-05
 Reference value :  3.85000e-05
 Reference value :  3.85005e-05
 Reference value :  3.85019e-05
 Reference value :  3.85029e-05
 Reference value :  3.85041e-05
 Reference value :  3.85056e-05
 Reference value :  3.85062e-05
 Reference value :  3.85079e-05
 Reference value :  3.85098e-05
 Reference value :  3.85144e-05
 Reference value :  3.86316e-05
 Reference value :  3.87501e-05
 Reference value :  3.87503e-05
 Reference value :  3.87511e-05
 Reference value :  3.87525e-05
 Reference value :  3.87544e-05
 Reference value :  3.87562e-05
 Reference value :  3.87589e-05
 Reference value :  3.87743e-05
 Reference value :  3.90000e-05
 Reference value :  3.90001e-05
 Reference value :  3.90005e-05
 Reference value :  3.90016e-05
 Reference value :  3.90031e-05
 Reference value :  3.90047e-05
 Reference value :  3.90057e-05
 Reference value :  3.90081e-05
 Reference value :  3.90101e-05
 Reference value :  3.90120e-05
 Reference value :  3.90137e-05
 Reference value :  3.90152e-05
 Reference value :  3.90170e-05
 Reference value :  3.90190e-05
 Reference value :  3.90254e-05
 Reference value :  3.90384e-05
 Reference value :  3.90444e-05
 Reference value :  3.90561e-05
 Reference value :  3.90657e-05
 Reference value :  3.90761e-05
 Reference value :  3.90930e-05
 Reference value :  3.91031e-05
 Reference value :  3.91116e-05
 Reference value :  3.91268e-05
 Reference value :  3.91518e-05
 Reference value :  3.92102e-05
 Reference value :  3.92501e-05
 Reference value :  3.92502e-05
 Reference value :  3.92502e-05
 Reference value :  3.92503e-05
 Reference value :  3.92507e-05
 Reference value :  3.92516e-05
 Reference value :  3.92525e-05
 Reference value :  3.92537e-05
 Reference value :  3.92557e-05
 Reference value :  3.92598e-05
 Reference value :  3.92730e-05
 Reference value :  3.93688e-05
 Reference value :  3.95000e-05
 Reference value :  3.95001e-05
 Reference value :  3.95001e-05
 Reference value :  3.95002e-05
 Reference value :  3.95003e-05
 Reference value :  3.95009e-05
 Reference value :  3.95016e-05
 Reference value :  3.95025e-05
 Reference value :  3.95030e-05
 Reference value :  3.95041e-05
 Reference value :  3.95056e-05
 Reference value :  3.95062e-05
 Reference value :  3.95079e-05
 Reference value :  3.95099e-05
 Reference value :  3.95145e-05
 Reference value :  3.95405e-05
 Reference value :  3.97501e-05
 Reference value :  3.97502e-05
 Reference value :  3.97502e-05
 Reference value :  3.97504e-05
 Reference value :  3.97511e-05
 Reference value :  3.97520e-05
 Reference value :  3.97532e-05
 Reference value :  3.97538e-05
 Reference value :  3.97549e-05
 Reference value :  3.97562e-05
 Reference value :  3.97589e-05
 Reference value :  3.97647e-05
 Reference value :  3.98018e-05
 Reference value :  4.00000e-05
 Reference value :  4.00001e-05
 Reference value :  4.00001e-05
 Reference value :  4.00003e-05
 Reference value :  4.00009e-05
 Reference value :  4.00016e-05
 Reference value :  4.00026e-05
 Reference value :  4.00031e-05
 Reference value :  4.00042e-05
 Reference value :  4.00052e-05
 Reference value :  4.00064e-05
 Reference value :  4.00081e-05
 Reference value :  4.00101e-05
 Reference value :  4.00120e-05
 Reference value :  4.00137e-05
 Reference value :  4.00152e-05
 Reference value :  4.00171e-05
 Reference value :  4.00190e-05
 Reference value :  4.00256e-05
 Reference value :  4.00312e-05
 Reference value :  4.00438e-05
 Reference value :  4.00549e-05
 Reference value :  4.00744e-05
 Reference value :  4.01239e-05
 Reference value :  4.01381e-05
 Reference value :  4.01476e-05
 Reference value :  4.01716e-05
 Reference value :  4.02156e-05
 Reference value :  4.02428e-05
 Reference value :  4.02501e-05
 Reference value :  4.02502e-05
 Reference value :  4.02503e-05
 Reference value :  4.02504e-05
 Reference value :  4.02511e-05
 Reference value :  4.02520e-05
 Reference value :  4.02532e-05
 Reference value :  4.02537e-05
 Reference value :  4.02551e-05
 Reference value :  4.02581e-05
 Reference value :  4.02661e-05
 Reference value :  4.03684e-05
 Reference value :  4.05000e-05
 Reference value :  4.05001e-05
 Reference value :  4.05002e-05
 Reference value :  4.05009e-05
 Reference value :  4.05016e-05
 Reference value :  4.05030e-05
 Reference value :  4.05041e-05
 Reference value :  4.05056e-05
 Reference value :  4.05062e-05
 Reference value :  4.05079e-05
 Reference value :  4.05099e-05
 Reference value :  4.05122e-05
 Reference value :  4.05262e-05
 Reference value :  4.06262e-05
 Reference value :  4.07501e-05
 Reference value :  4.07502e-05
 Reference value :  4.07503e-05
 Reference value :  4.07504e-05
 Reference value :  4.07511e-05
 Reference value :  4.07520e-05
 Reference value :  4.07532e-05
 Reference value :  4.07544e-05
 Reference value :  4.07555e-05
 Reference value :  4.07570e-05
 Reference value :  4.07604e-05
 Reference value :  4.07742e-05
 Reference value :  4.08362e-05
 Reference value :  4.10015e-05
 Reference value :  4.10046e-05
 Reference value :  4.10061e-05
 Reference value :  4.10090e-05
 Reference value :  4.10113e-05
 Reference value :  4.10123e-05
 Reference value :  4.10143e-05
 Reference value :  4.10161e-05
 Reference value :  4.10180e-05
 Reference value :  4.10201e-05
 Reference value :  4.10250e-05
 Reference value :  4.10348e-05
 Reference value :  4.10384e-05
 Reference value :  4.10510e-05
 Reference value :  4.10787e-05
 Reference value :  4.12394e-05
 Reference value :  4.12501e-05
 Reference value :  4.12502e-05
 Reference value :  4.12504e-05
 Reference value :  4.12516e-05
 Reference value :  4.12525e-05
 Reference value :  4.12537e-05
 Reference value :  4.12549e-05
 Reference value :  4.12576e-05
 Reference value :  4.12713e-05
 Reference value :  4.14597e-05
 Reference value :  4.15000e-05
 Reference value :  4.15001e-05
 Reference value :  4.15002e-05
 Reference value :  4.15009e-05
 Reference value :  4.15016e-05
 Reference value :  4.15031e-05
 Reference value :  4.15049e-05
 Reference value :  4.15063e-05
 Reference value :  4.15079e-05
 Reference value :  4.15098e-05
 Reference value :  4.15121e-05
 Reference value :  4.15265e-05
 Reference value :  4.16318e-05
 Reference value :  4.17501e-05
 Reference value :  4.17502e-05
 Reference value :  4.17503e-05
 Reference value :  4.17507e-05
 Reference value :  4.17516e-05
 Reference value :  4.17525e-05
 Reference value :  4.17538e-05
 Reference value :  4.17549e-05
 Reference value :  4.17563e-05
 Reference value :  4.17612e-05
 Reference value :  4.18026e-05
 Reference value :  4.20000e-05
 Reference value :  4.20001e-05
 Reference value :  4.20003e-05
 Reference value :  4.20009e-05
 Reference value :  4.20016e-05
 Reference value :  4.20031e-05
 Reference value :  4.20042e-05
 Reference value :  4.20053e-05
 Reference value :  4.20074e-05
 Reference value :  4.20090e-05
 Reference value :  4.20134e-05
 Reference value :  4.20720e-05
 Reference value :  4.22501e-05
 Reference value :  4.22502e-05
 Reference value :  4.22503e-05
 Reference value :  4.22511e-05
 Reference value :  4.22520e-05
 Reference value :  4.22532e-05
 Reference value :  4.22548e-05
 Reference value :  4.22584e-05
 Reference value :  4.22668e-05
 Reference value :  4.23191e-05
 Reference value :  4.25000e-05
 Reference value :  4.25000e-05
 Reference value :  4.25000e-05
 Reference value :  4.25000e-05
 Reference value :  4.25000e-05
 Reference value :  4.25001e-05
 Reference value :  4.25001e-05
 Reference value :  4.25001e-05
 Reference value :  4.25004e-05
 Reference value :  4.25012e-05
 Reference value :  4.25020e-05
 Reference value :  4.25031e-05
 Reference value :  4.25036e-05
 Reference value :  4.25046e-05
 Reference value :  4.25058e-05
 Reference value :  4.25079e-05
 Reference value :  4.25169e-05
 Reference value :  4.25229e-05
 Reference value :  4.25290e-05
 Reference value :  4.25332e-05
 Reference value :  4.25403e-05
 Reference value :  4.25509e-05
 Reference value :  4.25685e-05
 Reference value :  4.26066e-05
 Reference value :  4.27040e-05
 Reference value :  4.27501e-05
 Reference value :  4.27502e-05
 Reference value :  4.27503e-05
 Reference value :  4.27511e-05
 Reference value :  4.27520e-05
 Reference value :  4.27532e-05
 Reference value :  4.27538e-05
 Reference value :  4.27550e-05
 Reference value :  4.27579e-05
 Reference value :  4.27655e-05
 Reference value :  4.28094e-05
 Reference value :  4.30000e-05
 Reference value :  4.30001e-05
 Reference value :  4.30001e-05
 Reference value :  4.30002e-05
 Reference value :  4.30005e-05
 Reference value :  4.30009e-05
 Reference value :  4.30016e-05
 Reference value :  4.30026e-05
 Reference value :  4.30031e-05
 Reference value :  4.30042e-05
 Reference value :  4.30056e-05
 Reference value :  4.30087e-05
 Reference value :  4.30099e-05
 Reference value :  4.30126e-05
 Reference value :  4.30161e-05
 Reference value :  4.30256e-05
 Reference value :  4.30738e-05
 Reference value :  4.32501e-05
 Reference value :  4.32502e-05
 Reference value :  4.32502e-05
 Reference value :  4.32504e-05
 Reference value :  4.32511e-05
 Reference value :  4.32520e-05
 Reference value :  4.32532e-05
 Reference value :  4.32538e-05
 Reference value :  4.32549e-05
 Reference value :  4.32563e-05
 Reference value :  4.32590e-05
 Reference value :  4.32699e-05
 Reference value :  4.35000e-05
 Reference value :  4.35011e-05
 Reference value :  4.35044e-05
 Reference value :  4.35073e-05
 Reference value :  4.35116e-05
 Reference value :  4.35143e-05
 Reference value :  4.35197e-05
 Reference value :  4.35369e-05
 Reference value :  4.37216e-05
 Reference value :  4.37502e-05
 Reference value :  4.37504e-05
 Reference value :  4.37516e-05
 Reference value :  4.37531e-05
 Reference value :  4.37543e-05
 Reference value :  4.37564e-05
 Reference value :  4.37711e-05
 Reference value :  4.40000e-05
 Reference value :  4.40001e-05
 Reference value :  4.40009e-05
 Reference value :  4.40021e-05
 Reference value :  4.40036e-05
 Reference value :  4.40063e-05
 Reference value :  4.40080e-05
 Reference value :  4.40109e-05
 Reference value :  4.40266e-05
 Reference value :  4.42501e-05
 Reference value :  4.42502e-05
 Reference value :  4.42503e-05
 Reference value :  4.42504e-05
 Reference value :  4.42511e-05
 Reference value :  4.42520e-05
 Reference value :  4.42532e-05
 Reference value :  4.42543e-05
 Reference value :  4.42555e-05
 Reference value :  4.42572e-05
 Reference value :  4.42698e-05
 Reference value :  4.43455e-05
 Reference value :  4.45000e-05
 Reference value :  4.45001e-05
 Reference value :  4.45002e-05
 Reference value :  4.45009e-05
 Reference value :  4.45021e-05
 Reference value :  4.45036e-05
 Reference value :  4.45052e-05
 Reference value :  4.45073e-05
 Reference value :  4.45103e-05
 Reference value :  4.45145e-05
 Reference value :  4.45165e-05
 Reference value :  4.45219e-05
 Reference value :  4.46267e-05
 Reference value :  4.47501e-05
 Reference value :  4.47503e-05
 Reference value :  4.47511e-05
 Reference value :  4.47525e-05
 Reference value :  4.47538e-05
 Reference value :  4.47557e-05
 Reference value :  4.47625e-05
 Reference value :  4.48118e-05
 Reference value :  4.50000e-05
 Reference value :  4.50001e-05
 Reference value :  4.50002e-05
 Reference value :  4.50009e-05
 Reference value :  4.50021e-05
 Reference value :  4.50031e-05
 Reference value :  4.50049e-05
 Reference value :  4.50063e-05
 Reference value :  4.50079e-05
 Reference value :  4.50098e-05
 Reference value :  4.50144e-05
 Reference value :  4.50694e-05
 Reference value :  4.52501e-05
 Reference value :  4.52502e-05
 Reference value :  4.52503e-05
 Reference value :  4.52516e-05
 Reference value :  4.52532e-05
 Reference value :  4.52549e-05
 Reference value :  4.52563e-05
 Reference value :  4.52613e-05
 Reference value :  4.53032e-05
 Reference value :  4.55000e-05
 Reference value :  4.55001e-05
 Reference value :  4.55002e-05
 Reference value :  4.55009e-05
 Reference value :  4.55021e-05
 Reference value :  4.55031e-05
 Reference value :  4.55047e-05
 Reference value :  4.55065e-05
 Reference value :  4.55103e-05
 Reference value :  4.55145e-05
 Reference value :  4.55165e-05
 Reference value :  4.55199e-05
 Reference value :  4.55358e-05
 Reference value :  4.55565e-05
 Reference value :  4.55735e-05
 Reference value :  4.56109e-05
 Reference value :  4.57160e-05
 Reference value :  4.57501e-05
 Reference value :  4.57502e-05
 Reference value :  4.57507e-05
 Reference value :  4.57520e-05
 Reference value :  4.57537e-05
 Reference value :  4.57557e-05
 Reference value :  4.57626e-05
 Reference value :  4.57989e-05
 Reference value :  4.58175e-05
 Reference value :  4.58698e-05
 Reference value :  4.60009e-05
 Reference value :  4.60036e-05
 Reference value :  4.60055e-05
 Reference value :  4.60086e-05
 Reference value :  4.60118e-05
 Reference value :  4.60692e-05
 Reference value :  4.62502e-05
 Reference value :  4.62503e-05
 Reference value :  4.62516e-05
 Reference value :  4.62532e-05
 Reference value :  4.62548e-05
 Reference value :  4.62570e-05
 Reference value :  4.62784e-05
 Reference value :  4.65000e-05
 Reference value :  4.65001e-05
 Reference value :  4.65002e-05
 Reference value :  4.65009e-05
 Reference value :  4.65016e-05
 Reference value :  4.65031e-05
 Reference value :  4.65047e-05
 Reference value :  4.65058e-05
 Reference value :  4.65086e-05
 Reference value :  4.65119e-05
 Reference value :  4.65146e-05
 Reference value :  4.65165e-05
 Reference value :  4.65187e-05
 Reference value :  4.65245e-05
 Reference value :  4.65361e-05
 Reference value :  4.65452e-05
 Reference value :  4.65613e-05
 Reference value :  4.65971e-05
 Reference value :  4.67147e-05
 Reference value :  4.67502e-05
 Reference value :  4.67503e-05
 Reference value :  4.67511e-05
 Reference value :  4.67520e-05
 Reference value :  4.67532e-05
 Reference value :  4.67543e-05
 Reference value :  4.67565e-05
 Reference value :  4.67659e-05
 Reference value :  4.68661e-05
 Reference value :  4.70000e-05
 Reference value :  4.70001e-05
 Reference value :  4.70005e-05
 Reference value :  4.70012e-05
 Reference value :  4.70020e-05
 Reference value :  4.70036e-05
 Reference value :  4.70056e-05
 Reference value :  4.70070e-05
 Reference value :  4.70099e-05
 Reference value :  4.70191e-05
 Reference value :  4.72396e-05
 Reference value :  4.72502e-05
 Reference value :  4.72503e-05
 Reference value :  4.72511e-05
 Reference value :  4.72525e-05
 Reference value :  4.72538e-05
 Reference value :  4.72549e-05
 Reference value :  4.72562e-05
 Reference value :  4.72589e-05
 Reference value :  4.72679e-05
 Reference value :  4.73016e-05
 Reference value :  4.75000e-05
 Reference value :  4.75001e-05
 Reference value :  4.75003e-05
 Reference value :  4.75009e-05
 Reference value :  4.75016e-05
 Reference value :  4.75031e-05
 Reference value :  4.75047e-05
 Reference value :  4.75064e-05
 Reference value :  4.75081e-05
 Reference value :  4.75101e-05
 Reference value :  4.75120e-05
 Reference value :  4.75137e-05
 Reference value :  4.75152e-05
 Reference value :  4.75180e-05
 Reference value :  4.75254e-05
 Reference value :  4.75448e-05
 Reference value :  4.75555e-05
 Reference value :  4.75626e-05
 Reference value :  4.75782e-05
 Reference value :  4.76092e-05
 Reference value :  4.76154e-05
 Reference value :  4.76417e-05
 Reference value :  4.76698e-05
 Reference value :  4.77501e-05
 Reference value :  4.77502e-05
 Reference value :  4.77502e-05
 Reference value :  4.77504e-05
 Reference value :  4.77516e-05
 Reference value :  4.77525e-05
 Reference value :  4.77537e-05
 Reference value :  4.77551e-05
 Reference value :  4.77581e-05
 Reference value :  4.77730e-05
 Reference value :  4.79782e-05
 Reference value :  4.80001e-05
 Reference value :  4.80002e-05
 Reference value :  4.80005e-05
 Reference value :  4.80012e-05
 Reference value :  4.80020e-05
 Reference value :  4.80030e-05
 Reference value :  4.80049e-05
 Reference value :  4.80062e-05
 Reference value :  4.80089e-05
 Reference value :  4.80122e-05
 Reference value :  4.80262e-05
 Reference value :  4.82406e-05
 Reference value :  4.82501e-05
 Reference value :  4.82502e-05
 Reference value :  4.82503e-05
 Reference value :  4.82507e-05
 Reference value :  4.82516e-05
 Reference value :  4.82520e-05
 Reference value :  4.82532e-05
 Reference value :  4.82538e-05
 Reference value :  4.82549e-05
 Reference value :  4.82562e-05
 Reference value :  4.82604e-05
 Reference value :  4.82845e-05
 Reference value :  4.85000e-05
 Reference value :  4.85001e-05
 Reference value :  4.85002e-05
 Reference value :  4.85009e-05
 Reference value :  4.85016e-05
 Reference value :  4.85026e-05
 Reference value :  4.85031e-05
 Reference value :  4.85042e-05
 Reference value :  4.85052e-05
 Reference value :  4.85071e-05
 Reference value :  4.85101e-05
 Reference value :  4.85120e-05
 Reference value :  4.85137e-05
 Reference value :  4.85153e-05
 Reference value :  4.85181e-05
 Reference value :  4.85225e-05
 Reference value :  4.85281e-05
 Reference value :  4.85341e-05
 Reference value :  4.85416e-05
 Reference value :  4.85446e-05
 Reference value :  4.85508e-05
 Reference value :  4.85699e-05
 Reference value :  4.86273e-05
 Reference value :  4.87501e-05
 Reference value :  4.87502e-05
 Reference value :  4.87503e-05
 Reference value :  4.87507e-05
 Reference value :  4.87520e-05
 Reference value :  4.87532e-05
 Reference value :  4.87543e-05
 Reference value :  4.87565e-05
 Reference value :  4.87627e-05
 Reference value :  4.88139e-05
 Reference value :  4.88753e-05
 Reference value :  4.90000e-05
 Reference value :  4.90001e-05
 Reference value :  4.90001e-05
 Reference value :  4.90003e-05
 Reference value :  4.90009e-05
 Reference value :  4.90016e-05
 Reference value :  4.90030e-05
 Reference value :  4.90041e-05
 Reference value :  4.90056e-05
 Reference value :  4.90069e-05
 Reference value :  4.90089e-05
 Reference value :  4.90122e-05
 Reference value :  4.90404e-05
 Reference value :  4.92501e-05
 Reference value :  4.92502e-05
 Reference value :  4.92503e-05
 Reference value :  4.92507e-05
 Reference value :  4.92516e-05
 Reference value :  4.92525e-05
 Reference value :  4.92538e-05
[...]
 Reference value :  1.66763e-04
 Reference value :  1.66785e-04
 Reference value :  1.66969e-04
 Reference value :  1.67000e-04
 Reference value :  1.67000e-04
 Reference value :  1.67000e-04
 Reference value :  1.67001e-04
 Reference value :  1.67002e-04
 Reference value :  1.67003e-04
 Reference value :  1.67004e-04
 Reference value :  1.67006e-04
 Reference value :  1.67006e-04
 Reference value :  1.67008e-04
 Reference value :  1.67010e-04
 Reference value :  1.67012e-04
 Reference value :  1.67026e-04
 Reference value :  1.67250e-04
 Reference value :  1.67250e-04
 Reference value :  1.67250e-04
 Reference value :  1.67250e-04
 Reference value :  1.67252e-04
 Reference value :  1.67253e-04
 Reference value :  1.67254e-04
 Reference value :  1.67255e-04
 Reference value :  1.67256e-04
 Reference value :  1.67261e-04
 Reference value :  1.67303e-04
 Reference value :  1.67500e-04
 Reference value :  1.67500e-04
 Reference value :  1.67500e-04
 Reference value :  1.67501e-04
 Reference value :  1.67501e-04
 Reference value :  1.67502e-04
 Reference value :  1.67503e-04
 Reference value :  1.67505e-04
 Reference value :  1.67506e-04
 Reference value :  1.67509e-04
 Reference value :  1.67510e-04
 Reference value :  1.67513e-04
 Reference value :  1.67516e-04
 Reference value :  1.67518e-04
 Reference value :  1.67520e-04
 Reference value :  1.67528e-04
 Reference value :  1.67534e-04
 Reference value :  1.67541e-04
 Reference value :  1.67549e-04
 Reference value :  1.67560e-04
 Reference value :  1.67596e-04
 Reference value :  1.67750e-04
 Reference value :  1.67750e-04
 Reference value :  1.67750e-04
 Reference value :  1.67751e-04
 Reference value :  1.67752e-04
 Reference value :  1.67754e-04
 Reference value :  1.67755e-04
 Reference value :  1.67758e-04
 Reference value :  1.67766e-04
 Reference value :  1.67813e-04
 Reference value :  1.68000e-04
 Reference value :  1.68000e-04
 Reference value :  1.68000e-04
 Reference value :  1.68001e-04
 Reference value :  1.68001e-04
 Reference value :  1.68002e-04
 Reference value :  1.68003e-04
 Reference value :  1.68004e-04
 Reference value :  1.68006e-04
 Reference value :  1.68006e-04
 Reference value :  1.68008e-04
 Reference value :  1.68010e-04
 Reference value :  1.68015e-04
 Reference value :  1.68040e-04
 Reference value :  1.68239e-04
 Reference value :  1.68250e-04
 Reference value :  1.68250e-04
 Reference value :  1.68250e-04
 Reference value :  1.68250e-04
 Reference value :  1.68251e-04
 Reference value :  1.68252e-04
 Reference value :  1.68253e-04
 Reference value :  1.68254e-04
 Reference value :  1.68255e-04
 Reference value :  1.68256e-04
 Reference value :  1.68259e-04
 Reference value :  1.68265e-04
 Reference value :  1.68284e-04
 Reference value :  1.68405e-04
 Reference value :  1.68500e-04
 Reference value :  1.68500e-04
 Reference value :  1.68500e-04
 Reference value :  1.68501e-04
 Reference value :  1.68502e-04
 Reference value :  1.68503e-04
 Reference value :  1.68505e-04
 Reference value :  1.68506e-04
 Reference value :  1.68507e-04
 Reference value :  1.68509e-04
 Reference value :  1.68510e-04
 Reference value :  1.68512e-04
 Reference value :  1.68514e-04
 Reference value :  1.68515e-04
 Reference value :  1.68518e-04
 Reference value :  1.68523e-04
 Reference value :  1.68534e-04
 Reference value :  1.68553e-04
 Reference value :  1.68574e-04
 Reference value :  1.68613e-04
 Reference value :  1.68726e-04
 Reference value :  1.68750e-04
 Reference value :  1.68750e-04
 Reference value :  1.68750e-04
 Reference value :  1.68751e-04
 Reference value :  1.68752e-04
 Reference value :  1.68754e-04
 Reference value :  1.68755e-04
 Reference value :  1.68758e-04
 Reference value :  1.68772e-04
 Reference value :  1.68969e-04
 Reference value :  1.69000e-04
 Reference value :  1.69000e-04
 Reference value :  1.69000e-04
 Reference value :  1.69001e-04
 Reference value :  1.69002e-04
 Reference value :  1.69003e-04
 Reference value :  1.69004e-04
 Reference value :  1.69005e-04
 Reference value :  1.69006e-04
 Reference value :  1.69008e-04
 Reference value :  1.69011e-04
 Reference value :  1.69026e-04
 Reference value :  1.69250e-04
 Reference value :  1.69250e-04
 Reference value :  1.69250e-04
 Reference value :  1.69250e-04
 Reference value :  1.69251e-04
 Reference value :  1.69252e-04
 Reference value :  1.69253e-04
 Reference value :  1.69254e-04
 Reference value :  1.69255e-04
 Reference value :  1.69256e-04
 Reference value :  1.69259e-04
 Reference value :  1.69270e-04
 Reference value :  1.69346e-04
 Reference value :  1.69500e-04
 Reference value :  1.69500e-04
 Reference value :  1.69500e-04
 Reference value :  1.69500e-04
 Reference value :  1.69501e-04
 Reference value :  1.69501e-04
 Reference value :  1.69502e-04
 Reference value :  1.69503e-04
 Reference value :  1.69503e-04
 Reference value :  1.69504e-04
 Reference value :  1.69505e-04
 Reference value :  1.69507e-04
 Reference value :  1.69508e-04
 Reference value :  1.69510e-04
 Reference value :  1.69526e-04
 Reference value :  1.69635e-04
 Reference value :  1.69750e-04
 Reference value :  1.69750e-04
 Reference value :  1.69750e-04
 Reference value :  1.69751e-04
 Reference value :  1.69753e-04
 Reference value :  1.69755e-04
 Reference value :  1.69760e-04
 Reference value :  1.69819e-04
 Reference value :  1.70000e-04
 Reference value :  1.70000e-04
 Reference value :  1.70000e-04
 Reference value :  1.70000e-04
 Reference value :  1.70000e-04
 Reference value :  1.70001e-04
 Reference value :  1.70002e-04
 Reference value :  1.70003e-04
 Reference value :  1.70004e-04
 Reference value :  1.70006e-04
 Reference value :  1.70017e-04
 Reference value :  1.70029e-04
 Reference value :  1.70037e-04
 Reference value :  1.70050e-04
 Reference value :  1.70097e-04
 Reference value :  1.70250e-04
 Reference value :  1.70250e-04
 Reference value :  1.70252e-04
 Reference value :  1.70254e-04
 Reference value :  1.70256e-04
 Reference value :  1.70284e-04
 Reference value :  1.70500e-04
 Reference value :  1.70500e-04
 Reference value :  1.70501e-04
 Reference value :  1.70502e-04
 Reference value :  1.70504e-04
 Reference value :  1.70507e-04
 Reference value :  1.70511e-04
 Reference value :  1.70516e-04
 Reference value :  1.70533e-04
 Reference value :  1.70624e-04
 Reference value :  1.70750e-04
 Reference value :  1.70750e-04
 Reference value :  1.70750e-04
 Reference value :  1.70752e-04
 Reference value :  1.70754e-04
 Reference value :  1.70755e-04
 Reference value :  1.70756e-04
 Reference value :  1.70764e-04
 Reference value :  1.70846e-04
 Reference value :  1.71000e-04
 Reference value :  1.71000e-04
 Reference value :  1.71000e-04
 Reference value :  1.71001e-04
 Reference value :  1.71002e-04
 Reference value :  1.71003e-04
 Reference value :  1.71005e-04
 Reference value :  1.71006e-04
 Reference value :  1.71009e-04
 Reference value :  1.71010e-04
 Reference value :  1.71013e-04
 Reference value :  1.71016e-04
 Reference value :  1.71018e-04
 Reference value :  1.71020e-04
 Reference value :  1.71038e-04
 Reference value :  1.71126e-04
 Reference value :  1.71250e-04
 Reference value :  1.71250e-04
 Reference value :  1.71250e-04
 Reference value :  1.71250e-04
 Reference value :  1.71252e-04
 Reference value :  1.71253e-04
 Reference value :  1.71254e-04
 Reference value :  1.71255e-04
 Reference value :  1.71258e-04
 Reference value :  1.71286e-04
 Reference value :  1.71500e-04
 Reference value :  1.71500e-04
 Reference value :  1.71500e-04
 Reference value :  1.71501e-04
 Reference value :  1.71502e-04
 Reference value :  1.71503e-04
 Reference value :  1.71505e-04
 Reference value :  1.71506e-04
 Reference value :  1.71508e-04
 Reference value :  1.71511e-04
 Reference value :  1.71526e-04
 Reference value :  1.71741e-04
 Reference value :  1.71750e-04
 Reference value :  1.71750e-04
 Reference value :  1.71751e-04
 Reference value :  1.71752e-04
 Reference value :  1.71753e-04
 Reference value :  1.71754e-04
 Reference value :  1.71755e-04
 Reference value :  1.71757e-04
 Reference value :  1.71764e-04
 Reference value :  1.71803e-04
 Reference value :  1.72000e-04
 Reference value :  1.72000e-04
 Reference value :  1.72000e-04
 Reference value :  1.72001e-04
 Reference value :  1.72002e-04
 Reference value :  1.72003e-04
 Reference value :  1.72004e-04
 Reference value :  1.72005e-04
 Reference value :  1.72007e-04
 Reference value :  1.72010e-04
 Reference value :  1.72013e-04
 Reference value :  1.72016e-04
 Reference value :  1.72018e-04
 Reference value :  1.72019e-04
 Reference value :  1.72022e-04
 Reference value :  1.72037e-04
 Reference value :  1.72127e-04
 Reference value :  1.72250e-04
 Reference value :  1.72250e-04
 Reference value :  1.72250e-04
 Reference value :  1.72251e-04
 Reference value :  1.72252e-04
 Reference value :  1.72253e-04
 Reference value :  1.72254e-04
 Reference value :  1.72255e-04
 Reference value :  1.72258e-04
 Reference value :  1.72272e-04
 Reference value :  1.72470e-04
 Reference value :  1.72500e-04
 Reference value :  1.72500e-04
 Reference value :  1.72500e-04
 Reference value :  1.72501e-04
 Reference value :  1.72502e-04
 Reference value :  1.72503e-04
 Reference value :  1.72505e-04
 Reference value :  1.72506e-04
 Reference value :  1.72508e-04
 Reference value :  1.72511e-04
 Reference value :  1.72526e-04
 Reference value :  1.72742e-04
 Reference value :  1.72750e-04
 Reference value :  1.72750e-04
 Reference value :  1.72750e-04
 Reference value :  1.72751e-04
 Reference value :  1.72752e-04
 Reference value :  1.72753e-04
 Reference value :  1.72754e-04
 Reference value :  1.72755e-04
 Reference value :  1.72757e-04
 Reference value :  1.72770e-04
 Reference value :  1.72847e-04
 Reference value :  1.73000e-04
 Reference value :  1.73000e-04
 Reference value :  1.73000e-04
 Reference value :  1.73001e-04
 Reference value :  1.73001e-04
 Reference value :  1.73002e-04
 Reference value :  1.73003e-04
 Reference value :  1.73005e-04
 Reference value :  1.73006e-04
 Reference value :  1.73009e-04
 Reference value :  1.73012e-04
 Reference value :  1.73015e-04
 Reference value :  1.73016e-04
 Reference value :  1.73019e-04
 Reference value :  1.73024e-04
 Reference value :  1.73046e-04
 Reference value :  1.73064e-04
 Reference value :  1.73076e-04
 Reference value :  1.73090e-04
 Reference value :  1.73128e-04
 Reference value :  1.73164e-04
 Reference value :  1.73179e-04
 Reference value :  1.73187e-04
 Reference value :  1.73213e-04
 Reference value :  1.73250e-04
 Reference value :  1.73250e-04
 Reference value :  1.73250e-04
 Reference value :  1.73252e-04
 Reference value :  1.73253e-04
 Reference value :  1.73254e-04
 Reference value :  1.73255e-04
 Reference value :  1.73256e-04
 Reference value :  1.73263e-04
 Reference value :  1.73285e-04
 Reference value :  1.73469e-04
 Reference value :  1.73500e-04
 Reference value :  1.73500e-04
 Reference value :  1.73500e-04
 Reference value :  1.73501e-04
 Reference value :  1.73501e-04
 Reference value :  1.73502e-04
 Reference value :  1.73503e-04
 Reference value :  1.73504e-04
 Reference value :  1.73506e-04
 Reference value :  1.73506e-04
 Reference value :  1.73508e-04
 Reference value :  1.73510e-04
 Reference value :  1.73512e-04
 Reference value :  1.73526e-04
 Reference value :  1.73742e-04
 Reference value :  1.73750e-04
 Reference value :  1.73750e-04
 Reference value :  1.73750e-04
 Reference value :  1.73751e-04
 Reference value :  1.73752e-04
 Reference value :  1.73753e-04
 Reference value :  1.73754e-04
 Reference value :  1.73755e-04
 Reference value :  1.73756e-04
 Reference value :  1.73761e-04
 Reference value :  1.73781e-04
 Reference value :  1.73936e-04
 Reference value :  1.74000e-04
 Reference value :  1.74000e-04
 Reference value :  1.74000e-04
 Reference value :  1.74001e-04
 Reference value :  1.74002e-04
 Reference value :  1.74003e-04
 Reference value :  1.74004e-04
 Reference value :  1.74005e-04
 Reference value :  1.74007e-04
 Reference value :  1.74010e-04
 Reference value :  1.74013e-04
 Reference value :  1.74016e-04
 Reference value :  1.74018e-04
 Reference value :  1.74020e-04
 Reference value :  1.74028e-04
 Reference value :  1.74031e-04
 Reference value :  1.74040e-04
 Reference value :  1.74046e-04
 Reference value :  1.74063e-04
 Reference value :  1.74098e-04
 Reference value :  1.74220e-04
 Reference value :  1.74250e-04
 Reference value :  1.74250e-04
 Reference value :  1.74250e-04
 Reference value :  1.74252e-04
 Reference value :  1.74253e-04
 Reference value :  1.74254e-04
 Reference value :  1.74256e-04
 Reference value :  1.74263e-04
 Reference value :  1.74313e-04
 Reference value :  1.74500e-04
 Reference value :  1.74500e-04
 Reference value :  1.74500e-04
 Reference value :  1.74501e-04
 Reference value :  1.74502e-04
 Reference value :  1.74503e-04
 Reference value :  1.74505e-04
 Reference value :  1.74506e-04
 Reference value :  1.74509e-04
 Reference value :  1.74515e-04
 Reference value :  1.74626e-04
 Reference value :  1.74750e-04
 Reference value :  1.74750e-04
 Reference value :  1.74750e-04
 Reference value :  1.74751e-04
 Reference value :  1.74752e-04
 Reference value :  1.74753e-04
 Reference value :  1.74754e-04
 Reference value :  1.74755e-04
 Reference value :  1.74756e-04
 Reference value :  1.74759e-04
 Reference value :  1.74765e-04
 Reference value :  1.74784e-04
 Reference value :  1.74905e-04
 Reference value :  1.75000e-04
 Reference value :  1.75000e-04
 Reference value :  1.75000e-04
 Reference value :  1.75000e-04
 Reference value :  1.75001e-04
 Reference value :  1.75002e-04
 Reference value :  1.75003e-04
 Reference value :  1.75004e-04
 Reference value :  1.75005e-04
 Reference value :  1.75006e-04
 Reference value :  1.75008e-04
 Reference value :  1.75010e-04
 Reference value :  1.75012e-04
 Reference value :  1.75014e-04
 Reference value :  1.75015e-04
 Reference value :  1.75018e-04
 Reference value :  1.75023e-04
 Reference value :  1.75035e-04
 Reference value :  1.75039e-04
 Reference value :  1.75045e-04
 Reference value :  1.75052e-04
 Reference value :  1.75096e-04
 Reference value :  1.75250e-04
 Reference value :  1.75250e-04
 Reference value :  1.75250e-04
 Reference value :  1.75251e-04
 Reference value :  1.75252e-04
 Reference value :  1.75253e-04
 Reference value :  1.75254e-04
 Reference value :  1.75255e-04
 Reference value :  1.75256e-04
 Reference value :  1.75263e-04
 Reference value :  1.75285e-04
 Reference value :  1.75469e-04
 Reference value :  1.75500e-04
 Reference value :  1.75500e-04
 Reference value :  1.75500e-04
 Reference value :  1.75500e-04
 Reference value :  1.75501e-04
 Reference value :  1.75502e-04
 Reference value :  1.75503e-04
 Reference value :  1.75503e-04
 Reference value :  1.75504e-04
 Reference value :  1.75506e-04
 Reference value :  1.75506e-04
 Reference value :  1.75508e-04
 Reference value :  1.75510e-04
 Reference value :  1.75514e-04
 Reference value :  1.75572e-04
 Reference value :  1.75750e-04
 Reference value :  1.75750e-04
 Reference value :  1.75751e-04
 Reference value :  1.75752e-04
 Reference value :  1.75754e-04
 Reference value :  1.75755e-04
 Reference value :  1.75757e-04
 Reference value :  1.75781e-04
 Reference value :  1.76000e-04
 Reference value :  1.76000e-04
 Reference value :  1.76000e-04
 Reference value :  1.76001e-04
 Reference value :  1.76002e-04
 Reference value :  1.76003e-04
 Reference value :  1.76004e-04
 Reference value :  1.76005e-04
 Reference value :  1.76006e-04
 Reference value :  1.76010e-04
 Reference value :  1.76013e-04
 Reference value :  1.76016e-04
 Reference value :  1.76018e-04
 Reference value :  1.76020e-04
 Reference value :  1.76028e-04
 Reference value :  1.76031e-04
 Reference value :  1.76038e-04
 Reference value :  1.76044e-04
 Reference value :  1.76053e-04
 Reference value :  1.76059e-04
 Reference value :  1.76072e-04
 Reference value :  1.76110e-04
 Reference value :  1.76250e-04
 Reference value :  1.76250e-04
 Reference value :  1.76250e-04
 Reference value :  1.76250e-04
 Reference value :  1.76250e-04
 Reference value :  1.76251e-04
 Reference value :  1.76252e-04
 Reference value :  1.76253e-04
 Reference value :  1.76254e-04
 Reference value :  1.76255e-04
 Reference value :  1.76256e-04
 Reference value :  1.76262e-04
 Reference value :  1.76286e-04
 Reference value :  1.76471e-04
 Reference value :  1.76500e-04
 Reference value :  1.76500e-04
 Reference value :  1.76500e-04
 Reference value :  1.76500e-04
 Reference value :  1.76501e-04
 Reference value :  1.76502e-04
 Reference value :  1.76503e-04
 Reference value :  1.76504e-04
 Reference value :  1.76505e-04
 Reference value :  1.76506e-04
 Reference value :  1.76508e-04
 Reference value :  1.76510e-04
 Reference value :  1.76515e-04
 Reference value :  1.76540e-04
 Reference value :  1.76739e-04
 Reference value :  1.76750e-04
 Reference value :  1.76750e-04
 Reference value :  1.76750e-04
 Reference value :  1.76751e-04
 Reference value :  1.76752e-04
 Reference value :  1.76752e-04
 Reference value :  1.76753e-04
 Reference value :  1.76754e-04
 Reference value :  1.76755e-04
 Reference value :  1.76756e-04
 Reference value :  1.76759e-04
 Reference value :  1.76765e-04
 Reference value :  1.76784e-04
 Reference value :  1.76905e-04
 Reference value :  1.77000e-04
 Reference value :  1.77000e-04
 Reference value :  1.77000e-04
 Reference value :  1.77000e-04
 Reference value :  1.77001e-04
 Reference value :  1.77002e-04
 Reference value :  1.77003e-04
 Reference value :  1.77004e-04
 Reference value :  1.77005e-04
 Reference value :  1.77005e-04
 Reference value :  1.77006e-04
 Reference value :  1.77008e-04
 Reference value :  1.77010e-04
 Reference value :  1.77012e-04
 Reference value :  1.77014e-04
 Reference value :  1.77015e-04
 Reference value :  1.77017e-04
 Reference value :  1.77019e-04
 Reference value :  1.77023e-04
 Reference value :  1.77026e-04
 Reference value :  1.77034e-04
 Reference value :  1.77042e-04
 Reference value :  1.77051e-04
 Reference value :  1.77068e-04
 Reference value :  1.77121e-04
 Reference value :  1.77250e-04
 Reference value :  1.77250e-04
 Reference value :  1.77250e-04
 Reference value :  1.77250e-04
 Reference value :  1.77252e-04
 Reference value :  1.77253e-04
 Reference value :  1.77254e-04
 Reference value :  1.77256e-04
 Reference value :  1.77266e-04
 Reference value :  1.77312e-04
 Reference value :  1.77500e-04
 Reference value :  1.77500e-04
 Reference value :  1.77500e-04
 Reference value :  1.77500e-04
 Reference value :  1.77501e-04
 Reference value :  1.77502e-04
 Reference value :  1.77503e-04
 Reference value :  1.77505e-04
 Reference value :  1.77506e-04
 Reference value :  1.77508e-04
 Reference value :  1.77511e-04
 Reference value :  1.77526e-04
 Reference value :  1.77632e-04
 Reference value :  1.77750e-04
 Reference value :  1.77750e-04
 Reference value :  1.77750e-04
 Reference value :  1.77750e-04
 Reference value :  1.77752e-04
 Reference value :  1.77753e-04
 Reference value :  1.77754e-04
 Reference value :  1.77755e-04
 Reference value :  1.77756e-04
 Reference value :  1.77764e-04
 Reference value :  1.77934e-04
 Reference value :  1.78000e-04
 Reference value :  1.78000e-04
 Reference value :  1.78001e-04
 Reference value :  1.78001e-04
 Reference value :  1.78003e-04
 Reference value :  1.78004e-04
 Reference value :  1.78005e-04
 Reference value :  1.78007e-04
 Reference value :  1.78009e-04
 Reference value :  1.78013e-04
 Reference value :  1.78134e-04
 Reference value :  1.78250e-04
 Reference value :  1.78250e-04
 Reference value :  1.78251e-04
 Reference value :  1.78252e-04
 Reference value :  1.78253e-04
 Reference value :  1.78255e-04
 Reference value :  1.78258e-04
 Reference value :  1.78267e-04
 Reference value :  1.78379e-04
No. of Data Rows : 25823
ngspice-44 done
