
Note: Compatibility modes selected: hs a


Circuit: ** sch_path: /home/samantha/cace/sar-adc-using-sky130-pdk/runs/run_2025-09-05_16-28-34/parameters/power/run_17/power_consumption.sch

option SCALE: Scale is set to 1e-06 for instance and model parameters
option SCALE: Scale is set to 1e-06 for instance and model parameters
option SCALE: Scale is set to 1e-06 for instance and model parameters
option SCALE: Scale is set to 1e-06 for instance and model parameters
Doing analysis at TEMP = 27.000000 and TNOM = 27.000000

Using KLU as Direct Linear Solver
 Reference value :  0.00000e+00
 Reference value :  2.00000e-12
 Reference value :  8.00000e-12
 Reference value :  3.20000e-11
 Reference value :  1.00000e-10
 Reference value :  1.19200e-10
 Reference value :  1.96000e-10
 Reference value :  4.37164e-10
 Reference value :  1.04525e-09
 Reference value :  1.79865e-09
 Reference value :  2.63984e-09
 Reference value :  3.02234e-09
 Reference value :  3.97661e-09
 Reference value :  5.02605e-09
 Reference value :  6.38768e-09
 Reference value :  7.99827e-09
 Reference value :  9.86522e-09
 Reference value :  1.21972e-08
 Reference value :  1.29291e-08
 Reference value :  1.44950e-08
 Reference value :  1.65020e-08
 Reference value :  1.92910e-08
 Reference value :  2.06379e-08
 Reference value :  2.16928e-08
 Reference value :  2.34875e-08
 Reference value :  2.60425e-08
 Reference value :  3.21064e-08
 Reference value :  3.62812e-08
 Reference value :  4.56580e-08
 Reference value :  5.80899e-08
 Reference value :  8.51969e-08
 Reference value :  1.46580e-07
 Reference value :  2.50100e-07
 Reference value :  2.50130e-07
 Reference value :  2.50200e-07
 Reference value :  2.50222e-07
 Reference value :  2.50308e-07
 Reference value :  2.50519e-07
 Reference value :  2.50924e-07
 Reference value :  2.51656e-07
 Reference value :  2.52708e-07
 Reference value :  2.53485e-07
 Reference value :  2.54051e-07
 Reference value :  2.55368e-07
 Reference value :  2.56961e-07
 Reference value :  2.59498e-07
 Reference value :  2.65379e-07
 Reference value :  2.83588e-07
 Reference value :  3.40568e-07
 Reference value :  5.00000e-07
 Reference value :  5.00030e-07
 Reference value :  5.00100e-07
 Reference value :  5.00123e-07
 Reference value :  5.00217e-07
 Reference value :  5.00335e-07
 Reference value :  5.00812e-07
 Reference value :  5.01269e-07
 Reference value :  5.02176e-07
 Reference value :  5.03239e-07
 Reference value :  5.04472e-07
 Reference value :  5.06234e-07
 Reference value :  5.08780e-07
 Reference value :  5.09983e-07
 Reference value :  5.12803e-07
 Reference value :  5.14517e-07
 Reference value :  5.16058e-07
 Reference value :  5.20173e-07
 Reference value :  5.26891e-07
 Reference value :  5.42978e-07
 Reference value :  5.97807e-07
 Reference value :  7.50100e-07
 Reference value :  7.50130e-07
 Reference value :  7.50200e-07
 Reference value :  7.50254e-07
 Reference value :  7.50440e-07
 Reference value :  7.50795e-07
 Reference value :  7.51624e-07
 Reference value :  7.52670e-07
 Reference value :  7.53420e-07
 Reference value :  7.53946e-07
 Reference value :  7.55092e-07
 Reference value :  7.56532e-07
 Reference value :  7.59013e-07
 Reference value :  7.64882e-07
 Reference value :  7.86722e-07
 Reference value :  8.74085e-07
 Reference value :  1.00001e-06
 Reference value :  1.00007e-06
 Reference value :  1.00011e-06
 Reference value :  1.00015e-06
 Reference value :  1.00033e-06
 Reference value :  1.00081e-06
 Reference value :  1.00178e-06
 Reference value :  1.00220e-06
 Reference value :  1.00330e-06
 Reference value :  1.00394e-06
 Reference value :  1.00443e-06
 Reference value :  1.00502e-06
 Reference value :  1.00556e-06
 Reference value :  1.00618e-06
 Reference value :  1.00763e-06
 Reference value :  1.01004e-06
 Reference value :  1.01150e-06
 Reference value :  1.01276e-06
 Reference value :  1.01380e-06
 Reference value :  1.01589e-06
 Reference value :  1.01695e-06
 Reference value :  1.01926e-06
 Reference value :  1.02252e-06
 Reference value :  1.03152e-06
 Reference value :  1.06059e-06
 Reference value :  1.15804e-06
 Reference value :  1.25010e-06
 Reference value :  1.25013e-06
 Reference value :  1.25020e-06
 Reference value :  1.25022e-06
 Reference value :  1.25032e-06
 Reference value :  1.25057e-06
 Reference value :  1.25119e-06
 Reference value :  1.25162e-06
 Reference value :  1.25267e-06
 Reference value :  1.25395e-06
 Reference value :  1.25515e-06
 Reference value :  1.25674e-06
 Reference value :  1.25953e-06
 Reference value :  1.26633e-06
 Reference value :  1.29167e-06
 Reference value :  1.50000e-06
 Reference value :  1.50003e-06
 Reference value :  1.50010e-06
 Reference value :  1.50012e-06
 Reference value :  1.50022e-06
 Reference value :  1.50049e-06
 Reference value :  1.50127e-06
 Reference value :  1.50174e-06
 Reference value :  1.50218e-06
 Reference value :  1.50322e-06
 Reference value :  1.50441e-06
 Reference value :  1.50616e-06
 Reference value :  1.50718e-06
 Reference value :  1.50831e-06
 Reference value :  1.51038e-06
 Reference value :  1.51155e-06
 Reference value :  1.51554e-06
 Reference value :  1.53968e-06
 Reference value :  1.69050e-06
 Reference value :  1.75011e-06
 Reference value :  1.75017e-06
 Reference value :  1.75021e-06
 Reference value :  1.75026e-06
 Reference value :  1.75044e-06
 Reference value :  1.75080e-06
 Reference value :  1.75164e-06
 Reference value :  1.75269e-06
 Reference value :  1.75347e-06
 Reference value :  1.75399e-06
 Reference value :  1.75515e-06
 Reference value :  1.75662e-06
 Reference value :  1.75923e-06
 Reference value :  1.76547e-06
 Reference value :  1.82113e-06
 Reference value :  2.00000e-06
 Reference value :  2.00003e-06
 Reference value :  2.00010e-06
 Reference value :  2.00012e-06
 Reference value :  2.00022e-06
 Reference value :  2.00049e-06
 Reference value :  2.00127e-06
 Reference value :  2.00218e-06
 Reference value :  2.00333e-06
 Reference value :  2.00443e-06
 Reference value :  2.00556e-06
 Reference value :  2.00619e-06
 Reference value :  2.00764e-06
 Reference value :  2.01007e-06
 Reference value :  2.01151e-06
 Reference value :  2.01276e-06
 Reference value :  2.01380e-06
 Reference value :  2.01587e-06
 Reference value :  2.01693e-06
 Reference value :  2.01924e-06
 Reference value :  2.02249e-06
 Reference value :  2.03154e-06
 Reference value :  2.06128e-06
 Reference value :  2.15406e-06
 Reference value :  2.25010e-06
 Reference value :  2.25013e-06
 Reference value :  2.25020e-06
 Reference value :  2.25022e-06
 Reference value :  2.25032e-06
 Reference value :  2.25057e-06
 Reference value :  2.25119e-06
 Reference value :  2.25162e-06
 Reference value :  2.25267e-06
 Reference value :  2.25342e-06
 Reference value :  2.25395e-06
 Reference value :  2.25515e-06
 Reference value :  2.25674e-06
 Reference value :  2.25953e-06
 Reference value :  2.26635e-06
 Reference value :  2.32551e-06
 Reference value :  2.49981e-06
 Reference value :  2.50001e-06
 Reference value :  2.50007e-06
 Reference value :  2.50011e-06
 Reference value :  2.50015e-06
 Reference value :  2.50033e-06
 Reference value :  2.50081e-06
 Reference value :  2.50127e-06
 Reference value :  2.50217e-06
 Reference value :  2.50322e-06
 Reference value :  2.50441e-06
 Reference value :  2.50616e-06
 Reference value :  2.50831e-06
 Reference value :  2.51038e-06
 Reference value :  2.51155e-06
 Reference value :  2.51554e-06
 Reference value :  2.52656e-06
 Reference value :  2.53950e-06
 Reference value :  2.68816e-06
 Reference value :  2.75011e-06
 Reference value :  2.75017e-06
 Reference value :  2.75021e-06
 Reference value :  2.75032e-06
 Reference value :  2.75058e-06
 Reference value :  2.75122e-06
 Reference value :  2.75164e-06
 Reference value :  2.75269e-06
 Reference value :  2.75347e-06
 Reference value :  2.75399e-06
 Reference value :  2.75515e-06
 Reference value :  2.75578e-06
 Reference value :  2.75662e-06
 Reference value :  2.75922e-06
 Reference value :  2.76546e-06
 Reference value :  2.82096e-06
 Reference value :  3.00000e-06
 Reference value :  3.00003e-06
 Reference value :  3.00010e-06
 Reference value :  3.00012e-06
 Reference value :  3.00022e-06
 Reference value :  3.00049e-06
 Reference value :  3.00127e-06
 Reference value :  3.00218e-06
 Reference value :  3.00332e-06
 Reference value :  3.00443e-06
 Reference value :  3.00501e-06
 Reference value :  3.00556e-06
 Reference value :  3.00618e-06
 Reference value :  3.00764e-06
 Reference value :  3.01006e-06
 Reference value :  3.01151e-06
 Reference value :  3.01275e-06
 Reference value :  3.01379e-06
 Reference value :  3.01586e-06
 Reference value :  3.01693e-06
 Reference value :  3.01924e-06
 Reference value :  3.02249e-06
 Reference value :  3.03154e-06
 Reference value :  3.03761e-06
 Reference value :  3.04558e-06
 Reference value :  3.05108e-06
 Reference value :  3.05708e-06
 Reference value :  3.07020e-06
 Reference value :  3.08564e-06
 Reference value :  3.09655e-06
 Reference value :  3.11531e-06
 Reference value :  3.14497e-06
 Reference value :  3.20306e-06
 Reference value :  3.25010e-06
 Reference value :  3.25013e-06
 Reference value :  3.25020e-06
 Reference value :  3.25022e-06
 Reference value :  3.25032e-06
 Reference value :  3.25058e-06
 Reference value :  3.25122e-06
 Reference value :  3.25164e-06
 Reference value :  3.25269e-06
 Reference value :  3.25347e-06
 Reference value :  3.25397e-06
 Reference value :  3.25532e-06
 Reference value :  3.25698e-06
 Reference value :  3.26020e-06
 Reference value :  3.27873e-06
 Reference value :  3.33393e-06
 Reference value :  3.36956e-06
 Reference value :  3.39464e-06
 Reference value :  3.41817e-06
 Reference value :  3.46804e-06
 Reference value :  3.50001e-06
 Reference value :  3.50007e-06
 Reference value :  3.50011e-06
 Reference value :  3.50015e-06
 Reference value :  3.50033e-06
 Reference value :  3.50081e-06
 Reference value :  3.50178e-06
 Reference value :  3.50220e-06
 Reference value :  3.50323e-06
 Reference value :  3.50443e-06
 Reference value :  3.50616e-06
 Reference value :  3.50719e-06
 Reference value :  3.50934e-06
 Reference value :  3.51156e-06
 Reference value :  3.51917e-06
 Reference value :  3.53864e-06
 Reference value :  3.68356e-06
 Reference value :  3.75011e-06
 Reference value :  3.75017e-06
 Reference value :  3.75021e-06
 Reference value :  3.75026e-06
 Reference value :  3.75044e-06
 Reference value :  3.75080e-06
 Reference value :  3.75164e-06
 Reference value :  3.75269e-06
 Reference value :  3.75347e-06
 Reference value :  3.75399e-06
 Reference value :  3.75515e-06
 Reference value :  3.75661e-06
 Reference value :  3.75921e-06
 Reference value :  3.77330e-06
 Reference value :  3.82059e-06
 Reference value :  4.00001e-06
 Reference value :  4.00007e-06
 Reference value :  4.00011e-06
 Reference value :  4.00015e-06
 Reference value :  4.00033e-06
 Reference value :  4.00081e-06
 Reference value :  4.00127e-06
 Reference value :  4.00218e-06
 Reference value :  4.00266e-06
 Reference value :  4.00392e-06
 Reference value :  4.00443e-06
 Reference value :  4.00556e-06
 Reference value :  4.00618e-06
 Reference value :  4.00764e-06
 Reference value :  4.01006e-06
 Reference value :  4.01288e-06
 Reference value :  4.01394e-06
 Reference value :  4.01605e-06
 Reference value :  4.01709e-06
 Reference value :  4.01936e-06
 Reference value :  4.02271e-06
 Reference value :  4.03155e-06
 Reference value :  4.04142e-06
 Reference value :  4.05060e-06
 Reference value :  4.05595e-06
 Reference value :  4.06746e-06
 Reference value :  4.08963e-06
 Reference value :  4.12658e-06
 Reference value :  4.17335e-06
 Reference value :  4.25010e-06
 Reference value :  4.25013e-06
 Reference value :  4.25020e-06
 Reference value :  4.25022e-06
 Reference value :  4.25032e-06
 Reference value :  4.25052e-06
 Reference value :  4.25094e-06
 Reference value :  4.25178e-06
 Reference value :  4.25292e-06
 Reference value :  4.25430e-06
 Reference value :  4.25563e-06
 Reference value :  4.25739e-06
 Reference value :  4.26113e-06
 Reference value :  4.28315e-06
 Reference value :  4.34055e-06
 Reference value :  4.50000e-06
 Reference value :  4.50003e-06
 Reference value :  4.50010e-06
 Reference value :  4.50012e-06
 Reference value :  4.50022e-06
 Reference value :  4.50059e-06
 Reference value :  4.50158e-06
 Reference value :  4.50216e-06
 Reference value :  4.50263e-06
 Reference value :  4.50376e-06
 Reference value :  4.50441e-06
 Reference value :  4.50603e-06
 Reference value :  4.50798e-06
 Reference value :  4.50892e-06
 Reference value :  4.50992e-06
 Reference value :  4.51254e-06
 Reference value :  4.51760e-06
 Reference value :  4.55193e-06
 Reference value :  4.66652e-06
 Reference value :  4.75011e-06
 Reference value :  4.75017e-06
 Reference value :  4.75021e-06
 Reference value :  4.75025e-06
 Reference value :  4.75038e-06
 Reference value :  4.75051e-06
 Reference value :  4.75092e-06
 Reference value :  4.75132e-06
 Reference value :  4.75176e-06
 Reference value :  4.75289e-06
 Reference value :  4.75377e-06
 Reference value :  4.75433e-06
 Reference value :  4.75565e-06
 Reference value :  4.75635e-06
 Reference value :  4.75718e-06
 Reference value :  4.75814e-06
 Reference value :  4.75927e-06
 Reference value :  4.76189e-06
 Reference value :  4.76681e-06
 Reference value :  4.77259e-06
 Reference value :  4.78129e-06
 Reference value :  4.82422e-06
 Reference value :  4.87033e-06
 Reference value :  5.00001e-06
 Reference value :  5.00007e-06
 Reference value :  5.00011e-06
 Reference value :  5.00015e-06
 Reference value :  5.00034e-06
 Reference value :  5.00095e-06
 Reference value :  5.00158e-06
 Reference value :  5.00265e-06
 Reference value :  5.00378e-06
 Reference value :  5.00494e-06
 Reference value :  5.00605e-06
 Reference value :  5.00753e-06
 Reference value :  5.00962e-06
 Reference value :  5.01053e-06
 Reference value :  5.01267e-06
 Reference value :  5.01470e-06
 Reference value :  5.01689e-06
 Reference value :  5.01934e-06
 Reference value :  5.02265e-06
 Reference value :  5.02722e-06
 Reference value :  5.02983e-06
 Reference value :  5.03232e-06
 Reference value :  5.03702e-06
 Reference value :  5.03924e-06
 Reference value :  5.04626e-06
 Reference value :  5.05977e-06
 Reference value :  5.07724e-06
 Reference value :  5.10979e-06
 Reference value :  5.12290e-06
 Reference value :  5.15578e-06
 Reference value :  5.19724e-06
 Reference value :  5.25011e-06
 Reference value :  5.25013e-06
 Reference value :  5.25017e-06
 Reference value :  5.25021e-06
 Reference value :  5.25025e-06
 Reference value :  5.25038e-06
 Reference value :  5.25066e-06
 Reference value :  5.25129e-06
 Reference value :  5.25174e-06
 Reference value :  5.25284e-06
 Reference value :  5.25369e-06
 Reference value :  5.25424e-06
 Reference value :  5.25560e-06
 Reference value :  5.25734e-06
 Reference value :  5.26107e-06
 Reference value :  5.27173e-06
 Reference value :  5.30477e-06
 Reference value :  5.50000e-06
 Reference value :  5.50003e-06
 Reference value :  5.50010e-06
 Reference value :  5.50012e-06
 Reference value :  5.50022e-06
 Reference value :  5.50059e-06
 Reference value :  5.50158e-06
 Reference value :  5.50263e-06
 Reference value :  5.50376e-06
 Reference value :  5.50441e-06
 Reference value :  5.50602e-06
 Reference value :  5.50794e-06
 Reference value :  5.50983e-06
 Reference value :  5.51235e-06
 Reference value :  5.51696e-06
 Reference value :  5.53006e-06
 Reference value :  5.57730e-06
 Reference value :  5.75010e-06
 Reference value :  5.75013e-06
 Reference value :  5.75020e-06
 Reference value :  5.75025e-06
 Reference value :  5.75038e-06
 Reference value :  5.75068e-06
 Reference value :  5.75132e-06
 Reference value :  5.75176e-06
 Reference value :  5.75288e-06
 Reference value :  5.75376e-06
 Reference value :  5.75433e-06
 Reference value :  5.75565e-06
 Reference value :  5.75635e-06
 Reference value :  5.75717e-06
 Reference value :  5.75813e-06
 Reference value :  5.76030e-06
 Reference value :  5.76188e-06
 Reference value :  5.76679e-06
 Reference value :  5.79725e-06
 Reference value :  5.86818e-06
 Reference value :  6.00000e-06
 Reference value :  6.00003e-06
 Reference value :  6.00010e-06
 Reference value :  6.00012e-06
 Reference value :  6.00022e-06
 Reference value :  6.00059e-06
 Reference value :  6.00158e-06
 Reference value :  6.00265e-06
 Reference value :  6.00378e-06
 Reference value :  6.00443e-06
 Reference value :  6.00494e-06
 Reference value :  6.00605e-06
 Reference value :  6.00754e-06
 Reference value :  6.00951e-06
 Reference value :  6.01039e-06
 Reference value :  6.01242e-06
 Reference value :  6.01434e-06
 Reference value :  6.01636e-06
 Reference value :  6.01860e-06
 Reference value :  6.02158e-06
 Reference value :  6.02531e-06
 Reference value :  6.02713e-06
 Reference value :  6.03099e-06
 Reference value :  6.03835e-06
 Reference value :  6.04866e-06
 Reference value :  6.07330e-06
 Reference value :  6.14353e-06
 Reference value :  6.19638e-06
 Reference value :  6.24111e-06
 Reference value :  6.25010e-06
 Reference value :  6.25013e-06
 Reference value :  6.25020e-06
 Reference value :  6.25022e-06
 Reference value :  6.25031e-06
 Reference value :  6.25051e-06
 Reference value :  6.25091e-06
 Reference value :  6.25129e-06
 Reference value :  6.25173e-06
 Reference value :  6.25284e-06
 Reference value :  6.25369e-06
 Reference value :  6.25424e-06
 Reference value :  6.25560e-06
 Reference value :  6.25733e-06
 Reference value :  6.26107e-06
 Reference value :  6.28307e-06
 Reference value :  6.34252e-06
 Reference value :  6.50000e-06
 Reference value :  6.50003e-06
 Reference value :  6.50010e-06
 Reference value :  6.50012e-06
 Reference value :  6.50022e-06
 Reference value :  6.50059e-06
 Reference value :  6.50158e-06
 Reference value :  6.50263e-06
 Reference value :  6.50376e-06
 Reference value :  6.50510e-06
 Reference value :  6.50601e-06
 Reference value :  6.50706e-06
 Reference value :  6.50793e-06
 Reference value :  6.50886e-06
 Reference value :  6.50981e-06
 Reference value :  6.51230e-06
 Reference value :  6.51685e-06
 Reference value :  6.52965e-06
 Reference value :  6.57535e-06
 Reference value :  6.75010e-06
 Reference value :  6.75013e-06
 Reference value :  6.75020e-06
 Reference value :  6.75022e-06
 Reference value :  6.75031e-06
 Reference value :  6.75051e-06
 Reference value :  6.75092e-06
 Reference value :  6.75176e-06
 Reference value :  6.75288e-06
 Reference value :  6.75376e-06
 Reference value :  6.75433e-06
 Reference value :  6.75565e-06
 Reference value :  6.75635e-06
 Reference value :  6.75717e-06
 Reference value :  6.75925e-06
 Reference value :  6.76188e-06
 Reference value :  6.76679e-06
 Reference value :  6.78109e-06
 Reference value :  6.82313e-06
 Reference value :  6.95033e-06
 Reference value :  7.00001e-06
 Reference value :  7.00007e-06
 Reference value :  7.00011e-06
 Reference value :  7.00015e-06
 Reference value :  7.00034e-06
 Reference value :  7.00095e-06
 Reference value :  7.00158e-06
 Reference value :  7.00265e-06
 Reference value :  7.00378e-06
 Reference value :  7.00494e-06
 Reference value :  7.00605e-06
 Reference value :  7.00754e-06
 Reference value :  7.00949e-06
 Reference value :  7.01038e-06
 Reference value :  7.01241e-06
 Reference value :  7.01434e-06
 Reference value :  7.01638e-06
 Reference value :  7.01863e-06
 Reference value :  7.02182e-06
 Reference value :  7.02566e-06
 Reference value :  7.03053e-06
 Reference value :  7.04095e-06
 Reference value :  7.07414e-06
 Reference value :  7.09618e-06
 Reference value :  7.14890e-06
 Reference value :  7.25010e-06
 Reference value :  7.25013e-06
 Reference value :  7.25020e-06
 Reference value :  7.25022e-06
 Reference value :  7.25025e-06
 Reference value :  7.25038e-06
 Reference value :  7.25067e-06
 Reference value :  7.25129e-06
 Reference value :  7.25221e-06
 Reference value :  7.25372e-06
 Reference value :  7.25429e-06
 Reference value :  7.25574e-06
 Reference value :  7.25749e-06
 Reference value :  7.26129e-06
 Reference value :  7.28400e-06
 Reference value :  7.34250e-06
 Reference value :  7.50000e-06
 Reference value :  7.50003e-06
 Reference value :  7.50010e-06
 Reference value :  7.50012e-06
 Reference value :  7.50022e-06
 Reference value :  7.50059e-06
 Reference value :  7.50158e-06
 Reference value :  7.50266e-06
 Reference value :  7.50376e-06
 Reference value :  7.50515e-06
 Reference value :  7.50593e-06
 Reference value :  7.50797e-06
 Reference value :  7.50992e-06
 Reference value :  7.51256e-06
 Reference value :  7.51761e-06
 Reference value :  7.55208e-06
 Reference value :  7.75010e-06
 Reference value :  7.75013e-06
 Reference value :  7.75020e-06
 Reference value :  7.75025e-06
 Reference value :  7.75038e-06
 Reference value :  7.75051e-06
 Reference value :  7.75092e-06
 Reference value :  7.75176e-06
 Reference value :  7.75289e-06
 Reference value :  7.75376e-06
 Reference value :  7.75432e-06
 Reference value :  7.75564e-06
 Reference value :  7.75634e-06
 Reference value :  7.75729e-06
 Reference value :  7.76034e-06
 Reference value :  7.76875e-06
 Reference value :  7.82638e-06
 Reference value :  7.98255e-06
 Reference value :  8.00001e-06
 Reference value :  8.00007e-06
 Reference value :  8.00011e-06
 Reference value :  8.00015e-06
 Reference value :  8.00034e-06
 Reference value :  8.00095e-06
 Reference value :  8.00158e-06
 Reference value :  8.00265e-06
 Reference value :  8.00379e-06
 Reference value :  8.00501e-06
 Reference value :  8.00624e-06
 Reference value :  8.00779e-06
 Reference value :  8.00863e-06
 Reference value :  8.01053e-06
 Reference value :  8.01397e-06
 Reference value :  8.02465e-06
 Reference value :  8.06146e-06
 Reference value :  8.20265e-06
 Reference value :  8.25011e-06
 Reference value :  8.25017e-06
 Reference value :  8.25021e-06
 Reference value :  8.25026e-06
 Reference value :  8.25044e-06
 Reference value :  8.25076e-06
 Reference value :  8.25154e-06
 Reference value :  8.25258e-06
 Reference value :  8.25421e-06
 Reference value :  8.25638e-06
 Reference value :  8.25885e-06
 Reference value :  8.26354e-06
 Reference value :  8.28167e-06
 Reference value :  8.35419e-06
 Reference value :  8.50000e-06
No. of Data Rows : 1252
ngspice-44 done
