
Note: Compatibility modes selected: hs a


Circuit: ** sch_path: /home/ece/cace/sar-adc-using-sky130-pdk/runs/run_2025-09-09_04-42-38/parameters/sampling_rate/run_17/sampling_rate.sch

option SCALE: Scale is set to 1e-06 for instance and model parameters
option SCALE: Scale is set to 1e-06 for instance and model parameters
option SCALE: Scale is set to 1e-06 for instance and model parameters
option SCALE: Scale is set to 1e-06 for instance and model parameters
Doing analysis at TEMP = 27.000000 and TNOM = 27.000000

Using KLU as Direct Linear Solver
Operating point simulation skipped by 'uic',
  now using transient initial conditions.
 Reference value :  1.00000e-12
 Reference value :  1.02772e-12
 Reference value :  1.08316e-12
 Reference value :  1.19404e-12
 Reference value :  1.33842e-12
 Reference value :  1.62719e-12
 Reference value :  2.20473e-12
 Reference value :  3.04052e-12
 Reference value :  3.94765e-12
 Reference value :  5.17094e-12
 Reference value :  6.92461e-12
 Reference value :  1.02658e-11
 Reference value :  1.42537e-11
 Reference value :  2.09967e-11
 Reference value :  2.78386e-11
 Reference value :  3.68734e-11
 Reference value :  4.83549e-11
 Reference value :  6.53649e-11
 Reference value :  8.71669e-11
 Reference value :  1.00000e-10
 Reference value :  1.01051e-10
 Reference value :  1.03152e-10
 Reference value :  1.07354e-10
 Reference value :  1.15758e-10
 Reference value :  1.32566e-10
 Reference value :  1.66183e-10
 Reference value :  2.33416e-10
 Reference value :  3.67883e-10
 Reference value :  5.15259e-10
 Reference value :  7.59618e-10
 Reference value :  1.07421e-09
 Reference value :  1.47683e-09
 Reference value :  2.05382e-09
 Reference value :  2.67067e-09
 Reference value :  3.64428e-09
 Reference value :  4.54739e-09
 Reference value :  5.45770e-09
 Reference value :  6.53538e-09
 Reference value :  7.56844e-09
 Reference value :  8.73538e-09
 Reference value :  9.60696e-09
 Reference value :  1.04308e-08
 Reference value :  1.13928e-08
 Reference value :  1.23364e-08
 Reference value :  1.64629e-08
 Reference value :  2.07909e-08
 Reference value :  2.59616e-08
 Reference value :  3.08534e-08
 Reference value :  3.48824e-08
 Reference value :  3.92835e-08
 Reference value :  4.49158e-08
 Reference value :  5.02316e-08
 Reference value :  5.79005e-08
 Reference value :  6.82299e-08
 Reference value :  8.51806e-08
 Reference value :  1.16510e-07
 Reference value :  2.49446e-07
 Reference value :  2.50110e-07
 Reference value :  2.50130e-07
 Reference value :  2.50170e-07
 Reference value :  2.50200e-07
 Reference value :  2.50201e-07
 Reference value :  2.50202e-07
 Reference value :  2.50204e-07
 Reference value :  2.50208e-07
 Reference value :  2.50216e-07
 Reference value :  2.50233e-07
 Reference value :  2.50266e-07
 Reference value :  2.50332e-07
 Reference value :  2.50438e-07
 Reference value :  2.50611e-07
 Reference value :  2.50808e-07
 Reference value :  2.51136e-07
 Reference value :  2.51583e-07
 Reference value :  2.52133e-07
 Reference value :  2.52731e-07
 Reference value :  2.53379e-07
 Reference value :  2.54229e-07
 Reference value :  2.55159e-07
 Reference value :  2.56089e-07
 Reference value :  2.56989e-07
 Reference value :  2.57972e-07
 Reference value :  2.58946e-07
 Reference value :  2.60499e-07
 Reference value :  2.62419e-07
 Reference value :  2.64909e-07
 Reference value :  2.68767e-07
 Reference value :  2.73508e-07
 Reference value :  3.00568e-07
 Reference value :  3.29461e-07
 Reference value :  3.86675e-07
 Reference value :  5.00010e-07
 Reference value :  5.00030e-07
 Reference value :  5.00100e-07
 Reference value :  5.00104e-07
 Reference value :  5.00113e-07
 Reference value :  5.00130e-07
 Reference value :  5.00234e-07
 Reference value :  5.00372e-07
 Reference value :  5.00573e-07
 Reference value :  5.01538e-07
 Reference value :  5.02096e-07
 Reference value :  5.02766e-07
 Reference value :  5.04331e-07
 Reference value :  5.05155e-07
 Reference value :  5.07062e-07
 Reference value :  5.08130e-07
 Reference value :  5.09940e-07
 Reference value :  5.12181e-07
 Reference value :  5.14397e-07
 Reference value :  5.16701e-07
 Reference value :  5.21551e-07
 Reference value :  5.29329e-07
 Reference value :  5.46810e-07
 Reference value :  5.96608e-07
 Reference value :  7.50100e-07
 Reference value :  7.50130e-07
 Reference value :  7.50170e-07
 Reference value :  7.50200e-07
 Reference value :  7.50201e-07
 Reference value :  7.50202e-07
 Reference value :  7.50205e-07
 Reference value :  7.50211e-07
 Reference value :  7.50223e-07
 Reference value :  7.50247e-07
 Reference value :  7.50295e-07
 Reference value :  7.50390e-07
 Reference value :  7.50581e-07
 Reference value :  7.50959e-07
 Reference value :  7.51572e-07
 Reference value :  7.52191e-07
 Reference value :  7.52840e-07
 Reference value :  7.53541e-07
 Reference value :  7.54448e-07
 Reference value :  7.55180e-07
 Reference value :  7.56013e-07
 Reference value :  7.56742e-07
 Reference value :  7.57547e-07
 Reference value :  7.58563e-07
 Reference value :  7.59653e-07
 Reference value :  7.61835e-07
 Reference value :  7.68223e-07
 Reference value :  7.81348e-07
 Reference value :  7.98847e-07
 Reference value :  8.31746e-07
 Reference value :  8.97545e-07
 Reference value :  1.00001e-06
 Reference value :  1.00007e-06
 Reference value :  1.00010e-06
 Reference value :  1.00010e-06
 Reference value :  1.00011e-06
 Reference value :  1.00013e-06
 Reference value :  1.00016e-06
 Reference value :  1.00023e-06
 Reference value :  1.00037e-06
 Reference value :  1.00057e-06
 Reference value :  1.00095e-06
 Reference value :  1.00154e-06
 Reference value :  1.00209e-06
 Reference value :  1.00276e-06
 Reference value :  1.00353e-06
 Reference value :  1.00440e-06
 Reference value :  1.00519e-06
 Reference value :  1.00606e-06
 Reference value :  1.00684e-06
 Reference value :  1.00759e-06
 Reference value :  1.00846e-06
 Reference value :  1.00938e-06
 Reference value :  1.01056e-06
 Reference value :  1.01241e-06
 Reference value :  1.01476e-06
 Reference value :  1.01829e-06
 Reference value :  1.02070e-06
 Reference value :  1.02282e-06
 Reference value :  1.02485e-06
 Reference value :  1.02663e-06
 Reference value :  1.03079e-06
 Reference value :  1.03634e-06
 Reference value :  1.04637e-06
 Reference value :  1.05499e-06
 Reference value :  1.06787e-06
 Reference value :  1.08748e-06
 Reference value :  1.11813e-06
 Reference value :  1.16564e-06
 Reference value :  1.23668e-06
 Reference value :  1.25010e-06
 Reference value :  1.25011e-06
 Reference value :  1.25013e-06
 Reference value :  1.25017e-06
 Reference value :  1.25020e-06
 Reference value :  1.25020e-06
 Reference value :  1.25020e-06
 Reference value :  1.25021e-06
 Reference value :  1.25021e-06
 Reference value :  1.25022e-06
 Reference value :  1.25025e-06
 Reference value :  1.25029e-06
 Reference value :  1.25039e-06
 Reference value :  1.25057e-06
 Reference value :  1.25090e-06
 Reference value :  1.25154e-06
 Reference value :  1.25213e-06
 Reference value :  1.25276e-06
 Reference value :  1.25347e-06
 Reference value :  1.25438e-06
 Reference value :  1.25516e-06
 Reference value :  1.25603e-06
 Reference value :  1.25690e-06
 Reference value :  1.25782e-06
 Reference value :  1.25903e-06
 Reference value :  1.26096e-06
 Reference value :  1.26333e-06
 Reference value :  1.26658e-06
 Reference value :  1.27087e-06
 Reference value :  1.27831e-06
 Reference value :  1.29319e-06
 Reference value :  1.32115e-06
 Reference value :  1.37707e-06
 Reference value :  1.48891e-06
 Reference value :  1.50000e-06
 Reference value :  1.50001e-06
 Reference value :  1.50003e-06
 Reference value :  1.50007e-06
 Reference value :  1.50010e-06
 Reference value :  1.50010e-06
 Reference value :  1.50011e-06
 Reference value :  1.50013e-06
 Reference value :  1.50016e-06
 Reference value :  1.50023e-06
 Reference value :  1.50037e-06
 Reference value :  1.50057e-06
 Reference value :  1.50093e-06
 Reference value :  1.50143e-06
 Reference value :  1.50196e-06
 Reference value :  1.50261e-06
 Reference value :  1.50337e-06
 Reference value :  1.50412e-06
 Reference value :  1.50495e-06
 Reference value :  1.50594e-06
 Reference value :  1.50686e-06
 Reference value :  1.50810e-06
 Reference value :  1.50927e-06
 Reference value :  1.51070e-06
 Reference value :  1.51365e-06
 Reference value :  1.51501e-06
 Reference value :  1.51660e-06
 Reference value :  1.51815e-06
 Reference value :  1.52349e-06
 Reference value :  1.52964e-06
 Reference value :  1.53960e-06
 Reference value :  1.55952e-06
 Reference value :  1.59936e-06
 Reference value :  1.67903e-06
 Reference value :  1.75010e-06
 Reference value :  1.75011e-06
 Reference value :  1.75013e-06
 Reference value :  1.75017e-06
 Reference value :  1.75020e-06
 Reference value :  1.75020e-06
 Reference value :  1.75020e-06
 Reference value :  1.75021e-06
 Reference value :  1.75021e-06
 Reference value :  1.75022e-06
 Reference value :  1.75025e-06
 Reference value :  1.75029e-06
 Reference value :  1.75039e-06
 Reference value :  1.75057e-06
 Reference value :  1.75090e-06
 Reference value :  1.75156e-06
 Reference value :  1.75215e-06
 Reference value :  1.75278e-06
 Reference value :  1.75348e-06
 Reference value :  1.75440e-06
 Reference value :  1.75514e-06
 Reference value :  1.75598e-06
 Reference value :  1.75671e-06
 Reference value :  1.75752e-06
 Reference value :  1.75855e-06
 Reference value :  1.75965e-06
 Reference value :  1.76185e-06
 Reference value :  1.76416e-06
 Reference value :  1.76824e-06
 Reference value :  1.77261e-06
 Reference value :  1.78136e-06
 Reference value :  1.79884e-06
 Reference value :  1.83319e-06
 Reference value :  1.90189e-06
 Reference value :  2.00000e-06
 Reference value :  2.00001e-06
 Reference value :  2.00003e-06
 Reference value :  2.00007e-06
 Reference value :  2.00010e-06
 Reference value :  2.00010e-06
 Reference value :  2.00011e-06
 Reference value :  2.00013e-06
 Reference value :  2.00016e-06
 Reference value :  2.00023e-06
 Reference value :  2.00037e-06
 Reference value :  2.00057e-06
 Reference value :  2.00093e-06
 Reference value :  2.00143e-06
 Reference value :  2.00196e-06
 Reference value :  2.00260e-06
 Reference value :  2.00337e-06
 Reference value :  2.00412e-06
 Reference value :  2.00497e-06
 Reference value :  2.00572e-06
 Reference value :  2.00654e-06
 Reference value :  2.00756e-06
 Reference value :  2.00853e-06
 Reference value :  2.00954e-06
 Reference value :  2.01097e-06
 Reference value :  2.01251e-06
 Reference value :  2.01510e-06
 Reference value :  2.01830e-06
 Reference value :  2.02061e-06
 Reference value :  2.02270e-06
 Reference value :  2.02475e-06
 Reference value :  2.02668e-06
 Reference value :  2.02852e-06
 Reference value :  2.03088e-06
 Reference value :  2.03313e-06
 Reference value :  2.03616e-06
 Reference value :  2.03983e-06
 Reference value :  2.05238e-06
 Reference value :  2.06318e-06
 Reference value :  2.07984e-06
 Reference value :  2.10524e-06
 Reference value :  2.14485e-06
 Reference value :  2.20696e-06
 Reference value :  2.25010e-06
 Reference value :  2.25011e-06
 Reference value :  2.25013e-06
 Reference value :  2.25017e-06
 Reference value :  2.25020e-06
 Reference value :  2.25020e-06
 Reference value :  2.25020e-06
 Reference value :  2.25021e-06
 Reference value :  2.25021e-06
 Reference value :  2.25022e-06
 Reference value :  2.25025e-06
 Reference value :  2.25029e-06
 Reference value :  2.25039e-06
 Reference value :  2.25057e-06
 Reference value :  2.25090e-06
 Reference value :  2.25156e-06
 Reference value :  2.25215e-06
 Reference value :  2.25279e-06
 Reference value :  2.25349e-06
 Reference value :  2.25440e-06
 Reference value :  2.25516e-06
 Reference value :  2.25601e-06
 Reference value :  2.25687e-06
 Reference value :  2.25778e-06
 Reference value :  2.25898e-06
 Reference value :  2.26085e-06
 Reference value :  2.26326e-06
 Reference value :  2.26642e-06
 Reference value :  2.27071e-06
 Reference value :  2.27772e-06
 Reference value :  2.29174e-06
 Reference value :  2.31866e-06
 Reference value :  2.37252e-06
 Reference value :  2.47390e-06
 Reference value :  2.50000e-06
 Reference value :  2.50001e-06
 Reference value :  2.50003e-06
 Reference value :  2.50007e-06
 Reference value :  2.50010e-06
 Reference value :  2.50010e-06
 Reference value :  2.50011e-06
 Reference value :  2.50013e-06
 Reference value :  2.50023e-06
 Reference value :  2.50037e-06
 Reference value :  2.50057e-06
 Reference value :  2.50093e-06
 Reference value :  2.50143e-06
 Reference value :  2.50196e-06
 Reference value :  2.50260e-06
 Reference value :  2.50337e-06
 Reference value :  2.50412e-06
 Reference value :  2.50495e-06
 Reference value :  2.50594e-06
 Reference value :  2.50685e-06
 Reference value :  2.50810e-06
 Reference value :  2.50926e-06
 Reference value :  2.51069e-06
 Reference value :  2.51362e-06
 Reference value :  2.51497e-06
 Reference value :  2.51655e-06
 Reference value :  2.51808e-06
 Reference value :  2.51985e-06
 Reference value :  2.52341e-06
 Reference value :  2.52920e-06
 Reference value :  2.56091e-06
 Reference value :  2.68759e-06
 Reference value :  2.75011e-06
 Reference value :  2.75013e-06
 Reference value :  2.75017e-06
 Reference value :  2.75020e-06
 Reference value :  2.75020e-06
 Reference value :  2.75020e-06
 Reference value :  2.75021e-06
 Reference value :  2.75021e-06
 Reference value :  2.75022e-06
 Reference value :  2.75025e-06
 Reference value :  2.75029e-06
 Reference value :  2.75039e-06
 Reference value :  2.75057e-06
 Reference value :  2.75090e-06
 Reference value :  2.75156e-06
 Reference value :  2.75215e-06
 Reference value :  2.75279e-06
 Reference value :  2.75349e-06
 Reference value :  2.75440e-06
 Reference value :  2.75514e-06
 Reference value :  2.75598e-06
 Reference value :  2.75670e-06
 Reference value :  2.75751e-06
 Reference value :  2.75854e-06
 Reference value :  2.75964e-06
 Reference value :  2.76185e-06
 Reference value :  2.76417e-06
 Reference value :  2.76825e-06
 Reference value :  2.77262e-06
 Reference value :  2.78136e-06
 Reference value :  2.79884e-06
 Reference value :  2.83380e-06
 Reference value :  2.90373e-06
 Reference value :  3.00001e-06
 Reference value :  3.00003e-06
 Reference value :  3.00007e-06
 Reference value :  3.00010e-06
 Reference value :  3.00010e-06
 Reference value :  3.00011e-06
 Reference value :  3.00013e-06
 Reference value :  3.00016e-06
 Reference value :  3.00023e-06
 Reference value :  3.00037e-06
 Reference value :  3.00057e-06
 Reference value :  3.00093e-06
 Reference value :  3.00143e-06
 Reference value :  3.00196e-06
 Reference value :  3.00260e-06
 Reference value :  3.00337e-06
 Reference value :  3.00412e-06
 Reference value :  3.00497e-06
 Reference value :  3.00575e-06
 Reference value :  3.00655e-06
 Reference value :  3.00763e-06
 Reference value :  3.00863e-06
 Reference value :  3.00964e-06
 Reference value :  3.01107e-06
 Reference value :  3.01274e-06
 Reference value :  3.01546e-06
 Reference value :  3.01836e-06
 Reference value :  3.02065e-06
 Reference value :  3.02252e-06
 Reference value :  3.02430e-06
 Reference value :  3.02589e-06
 Reference value :  3.02761e-06
 Reference value :  3.02964e-06
 Reference value :  3.03162e-06
 Reference value :  3.03453e-06
 Reference value :  3.03782e-06
 Reference value :  3.04339e-06
 Reference value :  3.05151e-06
 Reference value :  3.06448e-06
 Reference value :  3.07909e-06
 Reference value :  3.09240e-06
 Reference value :  3.10243e-06
 Reference value :  3.11189e-06
 Reference value :  3.12008e-06
 Reference value :  3.12850e-06
 Reference value :  3.13575e-06
 Reference value :  3.14493e-06
 Reference value :  3.17611e-06
 Reference value :  3.22851e-06
 Reference value :  3.25010e-06
 Reference value :  3.25013e-06
 Reference value :  3.25017e-06
 Reference value :  3.25020e-06
 Reference value :  3.25020e-06
 Reference value :  3.25020e-06
 Reference value :  3.25021e-06
 Reference value :  3.25021e-06
 Reference value :  3.25022e-06
 Reference value :  3.25025e-06
 Reference value :  3.25029e-06
 Reference value :  3.25039e-06
 Reference value :  3.25057e-06
 Reference value :  3.25090e-06
 Reference value :  3.25156e-06
 Reference value :  3.25215e-06
 Reference value :  3.25279e-06
 Reference value :  3.25349e-06
 Reference value :  3.25440e-06
 Reference value :  3.25515e-06
 Reference value :  3.25598e-06
 Reference value :  3.25684e-06
 Reference value :  3.25774e-06
 Reference value :  3.25893e-06
 Reference value :  3.26078e-06
 Reference value :  3.26321e-06
 Reference value :  3.26630e-06
 Reference value :  3.27023e-06
 Reference value :  3.27491e-06
 Reference value :  3.28428e-06
 Reference value :  3.30302e-06
 Reference value :  3.32743e-06
 Reference value :  3.40274e-06
 Reference value :  3.50000e-06
 Reference value :  3.50001e-06
 Reference value :  3.50003e-06
 Reference value :  3.50007e-06
 Reference value :  3.50010e-06
 Reference value :  3.50011e-06
 Reference value :  3.50013e-06
 Reference value :  3.50023e-06
 Reference value :  3.50037e-06
 Reference value :  3.50057e-06
 Reference value :  3.50093e-06
 Reference value :  3.50143e-06
 Reference value :  3.50196e-06
 Reference value :  3.50260e-06
 Reference value :  3.50337e-06
 Reference value :  3.50412e-06
 Reference value :  3.50494e-06
 Reference value :  3.50582e-06
 Reference value :  3.50676e-06
 Reference value :  3.50784e-06
 Reference value :  3.50918e-06
 Reference value :  3.51038e-06
 Reference value :  3.51164e-06
 Reference value :  3.51346e-06
 Reference value :  3.51493e-06
 Reference value :  3.51653e-06
 Reference value :  3.51811e-06
 Reference value :  3.51995e-06
 Reference value :  3.52349e-06
 Reference value :  3.52857e-06
 Reference value :  3.53873e-06
 Reference value :  3.55906e-06
 Reference value :  3.59970e-06
 Reference value :  3.68099e-06
 Reference value :  3.75010e-06
 Reference value :  3.75011e-06
 Reference value :  3.75013e-06
 Reference value :  3.75017e-06
 Reference value :  3.75020e-06
 Reference value :  3.75020e-06
 Reference value :  3.75020e-06
 Reference value :  3.75021e-06
 Reference value :  3.75021e-06
 Reference value :  3.75022e-06
 Reference value :  3.75025e-06
 Reference value :  3.75029e-06
 Reference value :  3.75039e-06
 Reference value :  3.75057e-06
 Reference value :  3.75090e-06
 Reference value :  3.75156e-06
 Reference value :  3.75215e-06
 Reference value :  3.75279e-06
 Reference value :  3.75349e-06
 Reference value :  3.75440e-06
 Reference value :  3.75514e-06
 Reference value :  3.75598e-06
 Reference value :  3.75670e-06
 Reference value :  3.75750e-06
 Reference value :  3.75853e-06
 Reference value :  3.75963e-06
 Reference value :  3.76183e-06
 Reference value :  3.76414e-06
 Reference value :  3.76821e-06
 Reference value :  3.77256e-06
 Reference value :  3.78127e-06
 Reference value :  3.79869e-06
 Reference value :  3.83352e-06
 Reference value :  3.90320e-06
 Reference value :  4.00000e-06
 Reference value :  4.00001e-06
 Reference value :  4.00003e-06
 Reference value :  4.00007e-06
 Reference value :  4.00010e-06
 Reference value :  4.00010e-06
 Reference value :  4.00011e-06
 Reference value :  4.00013e-06
 Reference value :  4.00016e-06
 Reference value :  4.00023e-06
 Reference value :  4.00037e-06
 Reference value :  4.00057e-06
 Reference value :  4.00093e-06
 Reference value :  4.00143e-06
 Reference value :  4.00196e-06
 Reference value :  4.00260e-06
 Reference value :  4.00337e-06
 Reference value :  4.00412e-06
 Reference value :  4.00497e-06
 Reference value :  4.00572e-06
 Reference value :  4.00654e-06
 Reference value :  4.00744e-06
 Reference value :  4.00837e-06
 Reference value :  4.00934e-06
 Reference value :  4.01064e-06
 Reference value :  4.01218e-06
 Reference value :  4.01457e-06
 Reference value :  4.01793e-06
 Reference value :  4.02026e-06
 Reference value :  4.02228e-06
 Reference value :  4.02420e-06
 Reference value :  4.02612e-06
 Reference value :  4.02795e-06
 Reference value :  4.03025e-06
 Reference value :  4.03235e-06
 Reference value :  4.03534e-06
 Reference value :  4.03873e-06
 Reference value :  4.04392e-06
 Reference value :  4.04950e-06
 Reference value :  4.05499e-06
 Reference value :  4.05909e-06
 Reference value :  4.06337e-06
 Reference value :  4.06803e-06
 Reference value :  4.07308e-06
 Reference value :  4.08027e-06
 Reference value :  4.08708e-06
 Reference value :  4.09385e-06
 Reference value :  4.11839e-06
 Reference value :  4.13643e-06
 Reference value :  4.19020e-06
 Reference value :  4.25010e-06
 Reference value :  4.25011e-06
 Reference value :  4.25013e-06
 Reference value :  4.25017e-06
 Reference value :  4.25020e-06
 Reference value :  4.25020e-06
 Reference value :  4.25020e-06
 Reference value :  4.25021e-06
 Reference value :  4.25021e-06
 Reference value :  4.25022e-06
 Reference value :  4.25025e-06
 Reference value :  4.25029e-06
 Reference value :  4.25039e-06
 Reference value :  4.25058e-06
 Reference value :  4.25091e-06
 Reference value :  4.25157e-06
 Reference value :  4.25218e-06
 Reference value :  4.25282e-06
 Reference value :  4.25352e-06
 Reference value :  4.25442e-06
 Reference value :  4.25512e-06
 Reference value :  4.25592e-06
 Reference value :  4.25677e-06
 Reference value :  4.25766e-06
 Reference value :  4.25881e-06
 Reference value :  4.26073e-06
 Reference value :  4.26320e-06
 Reference value :  4.26623e-06
 Reference value :  4.27055e-06
 Reference value :  4.27692e-06
 Reference value :  4.28964e-06
 Reference value :  4.31509e-06
 Reference value :  4.36598e-06
 Reference value :  4.46777e-06
 Reference value :  4.50000e-06
 Reference value :  4.50001e-06
 Reference value :  4.50003e-06
 Reference value :  4.50010e-06
 Reference value :  4.50010e-06
 Reference value :  4.50011e-06
 Reference value :  4.50013e-06
 Reference value :  4.50016e-06
 Reference value :  4.50023e-06
 Reference value :  4.50037e-06
 Reference value :  4.50057e-06
 Reference value :  4.50093e-06
 Reference value :  4.50143e-06
 Reference value :  4.50196e-06
 Reference value :  4.50256e-06
 Reference value :  4.50327e-06
 Reference value :  4.50402e-06
 Reference value :  4.50494e-06
 Reference value :  4.50583e-06
 Reference value :  4.50683e-06
 Reference value :  4.50798e-06
 Reference value :  4.50916e-06
 Reference value :  4.51038e-06
 Reference value :  4.51164e-06
 Reference value :  4.51326e-06
 Reference value :  4.51469e-06
 Reference value :  4.51622e-06
 Reference value :  4.51787e-06
 Reference value :  4.51974e-06
 Reference value :  4.52318e-06
 Reference value :  4.52820e-06
 Reference value :  4.53818e-06
 Reference value :  4.55722e-06
 Reference value :  4.59390e-06
 Reference value :  4.66726e-06
 Reference value :  4.75010e-06
 Reference value :  4.75011e-06
 Reference value :  4.75013e-06
 Reference value :  4.75017e-06
 Reference value :  4.75020e-06
 Reference value :  4.75020e-06
 Reference value :  4.75020e-06
 Reference value :  4.75021e-06
 Reference value :  4.75021e-06
 Reference value :  4.75022e-06
 Reference value :  4.75025e-06
 Reference value :  4.75029e-06
 Reference value :  4.75039e-06
 Reference value :  4.75057e-06
 Reference value :  4.75090e-06
 Reference value :  4.75155e-06
 Reference value :  4.75215e-06
 Reference value :  4.75278e-06
 Reference value :  4.75348e-06
 Reference value :  4.75440e-06
 Reference value :  4.75514e-06
 Reference value :  4.75598e-06
 Reference value :  4.75671e-06
 Reference value :  4.75751e-06
 Reference value :  4.75855e-06
 Reference value :  4.75965e-06
 Reference value :  4.76079e-06
 Reference value :  4.76247e-06
 Reference value :  4.76455e-06
 Reference value :  4.76718e-06
 Reference value :  4.77077e-06
 Reference value :  4.77530e-06
 Reference value :  4.78436e-06
 Reference value :  4.79844e-06
 Reference value :  4.82660e-06
 Reference value :  4.88292e-06
 Reference value :  4.99556e-06
 Reference value :  5.00000e-06
 Reference value :  5.00001e-06
 Reference value :  5.00003e-06
 Reference value :  5.00007e-06
 Reference value :  5.00010e-06
 Reference value :  5.00010e-06
 Reference value :  5.00011e-06
 Reference value :  5.00013e-06
 Reference value :  5.00017e-06
 Reference value :  5.00023e-06
 Reference value :  5.00037e-06
 Reference value :  5.00057e-06
 Reference value :  5.00093e-06
 Reference value :  5.00145e-06
 Reference value :  5.00197e-06
 Reference value :  5.00261e-06
 Reference value :  5.00338e-06
 Reference value :  5.00414e-06
 Reference value :  5.00497e-06
 Reference value :  5.00569e-06
 Reference value :  5.00648e-06
 Reference value :  5.00720e-06
 Reference value :  5.00804e-06
 Reference value :  5.00891e-06
 Reference value :  5.00998e-06
 Reference value :  5.01133e-06
 Reference value :  5.01335e-06
 Reference value :  5.01471e-06
 Reference value :  5.01622e-06
 Reference value :  5.01789e-06
 Reference value :  5.01960e-06
 Reference value :  5.02136e-06
 Reference value :  5.02297e-06
 Reference value :  5.02462e-06
 Reference value :  5.02603e-06
 Reference value :  5.02754e-06
 Reference value :  5.02936e-06
 Reference value :  5.03149e-06
 Reference value :  5.03415e-06
 Reference value :  5.03773e-06
 Reference value :  5.04377e-06
 Reference value :  5.04950e-06
 Reference value :  5.05616e-06
 Reference value :  5.06084e-06
 Reference value :  5.06525e-06
 Reference value :  5.06877e-06
 Reference value :  5.07269e-06
 Reference value :  5.08053e-06
 Reference value :  5.08810e-06
 Reference value :  5.10178e-06
 Reference value :  5.12194e-06
 Reference value :  5.15076e-06
 Reference value :  5.19998e-06
 Reference value :  5.25010e-06
 Reference value :  5.25011e-06
 Reference value :  5.25013e-06
 Reference value :  5.25017e-06
 Reference value :  5.25020e-06
 Reference value :  5.25020e-06
 Reference value :  5.25021e-06
 Reference value :  5.25021e-06
 Reference value :  5.25022e-06
 Reference value :  5.25025e-06
 Reference value :  5.25029e-06
 Reference value :  5.25039e-06
 Reference value :  5.25058e-06
 Reference value :  5.25091e-06
 Reference value :  5.25157e-06
 Reference value :  5.25218e-06
 Reference value :  5.25282e-06
 Reference value :  5.25353e-06
 Reference value :  5.25443e-06
 Reference value :  5.25516e-06
 Reference value :  5.25599e-06
 Reference value :  5.25684e-06
 Reference value :  5.25773e-06
 Reference value :  5.25891e-06
 Reference value :  5.26076e-06
 Reference value :  5.26320e-06
 Reference value :  5.26628e-06
 Reference value :  5.27057e-06
 Reference value :  5.29052e-06
 Reference value :  5.36842e-06
 Reference value :  5.44987e-06
 Reference value :  5.50000e-06
 Reference value :  5.50001e-06
 Reference value :  5.50003e-06
 Reference value :  5.50007e-06
 Reference value :  5.50010e-06
 Reference value :  5.50010e-06
 Reference value :  5.50011e-06
 Reference value :  5.50013e-06
 Reference value :  5.50016e-06
 Reference value :  5.50023e-06
 Reference value :  5.50037e-06
 Reference value :  5.50057e-06
 Reference value :  5.50093e-06
 Reference value :  5.50143e-06
 Reference value :  5.50196e-06
 Reference value :  5.50260e-06
 Reference value :  5.50336e-06
 Reference value :  5.50412e-06
 Reference value :  5.50493e-06
 Reference value :  5.50582e-06
 Reference value :  5.50675e-06
 Reference value :  5.50793e-06
 Reference value :  5.50912e-06
 Reference value :  5.51035e-06
 Reference value :  5.51162e-06
 Reference value :  5.51322e-06
 Reference value :  5.51471e-06
 Reference value :  5.51626e-06
 Reference value :  5.51807e-06
 Reference value :  5.52008e-06
 Reference value :  5.52362e-06
 Reference value :  5.52882e-06
 Reference value :  5.53850e-06
 Reference value :  5.55650e-06
 Reference value :  5.58971e-06
 Reference value :  5.61980e-06
 Reference value :  5.64892e-06
 Reference value :  5.68069e-06
 Reference value :  5.71241e-06
 Reference value :  5.74526e-06
 Reference value :  5.75010e-06
 Reference value :  5.75011e-06
 Reference value :  5.75013e-06
 Reference value :  5.75017e-06
 Reference value :  5.75020e-06
 Reference value :  5.75020e-06
 Reference value :  5.75020e-06
 Reference value :  5.75021e-06
 Reference value :  5.75021e-06
 Reference value :  5.75022e-06
 Reference value :  5.75025e-06
 Reference value :  5.75029e-06
 Reference value :  5.75039e-06
 Reference value :  5.75057e-06
 Reference value :  5.75090e-06
 Reference value :  5.75156e-06
 Reference value :  5.75216e-06
 Reference value :  5.75279e-06
 Reference value :  5.75350e-06
 Reference value :  5.75441e-06
 Reference value :  5.75516e-06
 Reference value :  5.75601e-06
 Reference value :  5.75673e-06
 Reference value :  5.75754e-06
 Reference value :  5.75858e-06
 Reference value :  5.75968e-06
 Reference value :  5.76082e-06
 Reference value :  5.76248e-06
 Reference value :  5.76461e-06
 Reference value :  5.76720e-06
 Reference value :  5.77084e-06
 Reference value :  5.77534e-06
 Reference value :  5.78433e-06
 Reference value :  5.79900e-06
 Reference value :  5.82832e-06
 Reference value :  5.88697e-06
 Reference value :  6.00000e-06
 Reference value :  6.00001e-06
 Reference value :  6.00003e-06
 Reference value :  6.00007e-06
 Reference value :  6.00010e-06
 Reference value :  6.00010e-06
 Reference value :  6.00011e-06
 Reference value :  6.00013e-06
 Reference value :  6.00016e-06
 Reference value :  6.00023e-06
 Reference value :  6.00037e-06
 Reference value :  6.00057e-06
 Reference value :  6.00093e-06
 Reference value :  6.00143e-06
 Reference value :  6.00196e-06
 Reference value :  6.00260e-06
 Reference value :  6.00337e-06
 Reference value :  6.00412e-06
 Reference value :  6.00496e-06
 Reference value :  6.00569e-06
 Reference value :  6.00648e-06
 Reference value :  6.00721e-06
 Reference value :  6.00805e-06
 Reference value :  6.00896e-06
 Reference value :  6.01002e-06
 Reference value :  6.01159e-06
 Reference value :  6.01350e-06
 Reference value :  6.01492e-06
 Reference value :  6.01645e-06
 Reference value :  6.01806e-06
 Reference value :  6.01995e-06
 Reference value :  6.02179e-06
 Reference value :  6.02328e-06
 Reference value :  6.02488e-06
 Reference value :  6.02622e-06
 Reference value :  6.02735e-06
 Reference value :  6.02858e-06
 Reference value :  6.03020e-06
 Reference value :  6.03167e-06
 Reference value :  6.03389e-06
 Reference value :  6.03833e-06
 Reference value :  6.04457e-06
 Reference value :  6.04868e-06
 Reference value :  6.05373e-06
 Reference value :  6.05902e-06
 Reference value :  6.06831e-06
 Reference value :  6.07977e-06
 Reference value :  6.10269e-06
 Reference value :  6.14852e-06
 Reference value :  6.22733e-06
 Reference value :  6.25010e-06
 Reference value :  6.25011e-06
 Reference value :  6.25013e-06
 Reference value :  6.25017e-06
 Reference value :  6.25020e-06
 Reference value :  6.25020e-06
 Reference value :  6.25020e-06
 Reference value :  6.25021e-06
 Reference value :  6.25022e-06
 Reference value :  6.25025e-06
 Reference value :  6.25029e-06
 Reference value :  6.25039e-06
 Reference value :  6.25057e-06
 Reference value :  6.25090e-06
 Reference value :  6.25156e-06
 Reference value :  6.25216e-06
 Reference value :  6.25280e-06
 Reference value :  6.25350e-06
 Reference value :  6.25441e-06
 Reference value :  6.25515e-06
 Reference value :  6.25599e-06
 Reference value :  6.25684e-06
 Reference value :  6.25774e-06
 Reference value :  6.25893e-06
 Reference value :  6.26078e-06
 Reference value :  6.26322e-06
 Reference value :  6.26630e-06
 Reference value :  6.27061e-06
 Reference value :  6.27734e-06
 Reference value :  6.29079e-06
 Reference value :  6.31704e-06
 Reference value :  6.36954e-06
 Reference value :  6.47454e-06
 Reference value :  6.50000e-06
 Reference value :  6.50001e-06
 Reference value :  6.50003e-06
 Reference value :  6.50007e-06
 Reference value :  6.50010e-06
 Reference value :  6.50011e-06
 Reference value :  6.50013e-06
 Reference value :  6.50023e-06
 Reference value :  6.50057e-06
 Reference value :  6.50093e-06
 Reference value :  6.50143e-06
 Reference value :  6.50196e-06
 Reference value :  6.50260e-06
 Reference value :  6.50337e-06
 Reference value :  6.50412e-06
 Reference value :  6.50493e-06
 Reference value :  6.50582e-06
 Reference value :  6.50675e-06
 Reference value :  6.50784e-06
 Reference value :  6.50921e-06
 Reference value :  6.51041e-06
 Reference value :  6.51168e-06
 Reference value :  6.51353e-06
 Reference value :  6.51522e-06
 Reference value :  6.51687e-06
 Reference value :  6.51887e-06
 Reference value :  6.52107e-06
 Reference value :  6.52469e-06
 Reference value :  6.52999e-06
 Reference value :  6.53916e-06
 Reference value :  6.55564e-06
 Reference value :  6.58472e-06
 Reference value :  6.63950e-06
 Reference value :  6.73983e-06
 Reference value :  6.75010e-06
 Reference value :  6.75011e-06
 Reference value :  6.75013e-06
 Reference value :  6.75017e-06
 Reference value :  6.75020e-06
 Reference value :  6.75020e-06
 Reference value :  6.75020e-06
 Reference value :  6.75021e-06
 Reference value :  6.75021e-06
 Reference value :  6.75022e-06
 Reference value :  6.75025e-06
 Reference value :  6.75029e-06
 Reference value :  6.75039e-06
 Reference value :  6.75058e-06
 Reference value :  6.75091e-06
 Reference value :  6.75158e-06
 Reference value :  6.75219e-06
 Reference value :  6.75283e-06
 Reference value :  6.75353e-06
 Reference value :  6.75443e-06
 Reference value :  6.75514e-06
 Reference value :  6.75595e-06
 Reference value :  6.75666e-06
 Reference value :  6.75745e-06
 Reference value :  6.75847e-06
 Reference value :  6.75955e-06
 Reference value :  6.76172e-06
 Reference value :  6.76401e-06
 Reference value :  6.76802e-06
 Reference value :  6.77231e-06
 Reference value :  6.78090e-06
 Reference value :  6.79807e-06
 Reference value :  6.83241e-06
 Reference value :  6.90109e-06
 Reference value :  7.00000e-06
 Reference value :  7.00001e-06
 Reference value :  7.00007e-06
 Reference value :  7.00010e-06
 Reference value :  7.00011e-06
 Reference value :  7.00013e-06
 Reference value :  7.00023e-06
 Reference value :  7.00037e-06
 Reference value :  7.00093e-06
 Reference value :  7.00143e-06
 Reference value :  7.00196e-06
 Reference value :  7.00260e-06
 Reference value :  7.00336e-06
 Reference value :  7.00412e-06
 Reference value :  7.00497e-06
 Reference value :  7.00572e-06
 Reference value :  7.00653e-06
 Reference value :  7.00731e-06
 Reference value :  7.00826e-06
 Reference value :  7.01037e-06
 Reference value :  7.01424e-06
 Reference value :  7.01716e-06
 Reference value :  7.01947e-06
 Reference value :  7.02190e-06
 Reference value :  7.02366e-06
 Reference value :  7.02529e-06
 Reference value :  7.02679e-06
 Reference value :  7.02837e-06
 Reference value :  7.03019e-06
 Reference value :  7.03272e-06
 Reference value :  7.03537e-06
 Reference value :  7.03779e-06
 Reference value :  7.04051e-06
 Reference value :  7.04420e-06
 Reference value :  7.04864e-06
 Reference value :  7.05687e-06
 Reference value :  7.06660e-06
 Reference value :  7.08368e-06
 Reference value :  7.09692e-06
 Reference value :  7.13911e-06
 Reference value :  7.20807e-06
 Reference value :  7.25010e-06
 Reference value :  7.25011e-06
 Reference value :  7.25013e-06
 Reference value :  7.25017e-06
 Reference value :  7.25020e-06
 Reference value :  7.25020e-06
 Reference value :  7.25020e-06
 Reference value :  7.25021e-06
 Reference value :  7.25021e-06
 Reference value :  7.25022e-06
 Reference value :  7.25025e-06
 Reference value :  7.25029e-06
 Reference value :  7.25039e-06
 Reference value :  7.25058e-06
 Reference value :  7.25092e-06
 Reference value :  7.25158e-06
 Reference value :  7.25219e-06
 Reference value :  7.25284e-06
 Reference value :  7.25354e-06
 Reference value :  7.25443e-06
 Reference value :  7.25513e-06
 Reference value :  7.25593e-06
 Reference value :  7.25679e-06
 Reference value :  7.25767e-06
 Reference value :  7.25883e-06
 Reference value :  7.26071e-06
 Reference value :  7.26319e-06
 Reference value :  7.26620e-06
 Reference value :  7.27052e-06
 Reference value :  7.27696e-06
 Reference value :  7.28986e-06
 Reference value :  7.31565e-06
 Reference value :  7.36722e-06
 Reference value :  7.47038e-06
 Reference value :  7.50000e-06
 Reference value :  7.50001e-06
 Reference value :  7.50003e-06
 Reference value :  7.50007e-06
 Reference value :  7.50010e-06
 Reference value :  7.50010e-06
 Reference value :  7.50011e-06
 Reference value :  7.50013e-06
 Reference value :  7.50016e-06
 Reference value :  7.50023e-06
 Reference value :  7.50037e-06
 Reference value :  7.50056e-06
 Reference value :  7.50092e-06
 Reference value :  7.50145e-06
 Reference value :  7.50199e-06
 Reference value :  7.50264e-06
 Reference value :  7.50341e-06
 Reference value :  7.50418e-06
 Reference value :  7.50497e-06
 Reference value :  7.50594e-06
 Reference value :  7.50684e-06
 Reference value :  7.50804e-06
 Reference value :  7.50928e-06
 Reference value :  7.51052e-06
 Reference value :  7.51346e-06
 Reference value :  7.51490e-06
 Reference value :  7.51644e-06
 Reference value :  7.51807e-06
 Reference value :  7.51992e-06
 Reference value :  7.52332e-06
 Reference value :  7.52826e-06
 Reference value :  7.53814e-06
 Reference value :  7.55703e-06
 Reference value :  7.59351e-06
 Reference value :  7.66647e-06
 Reference value :  7.75010e-06
 Reference value :  7.75011e-06
 Reference value :  7.75013e-06
 Reference value :  7.75017e-06
 Reference value :  7.75020e-06
 Reference value :  7.75020e-06
 Reference value :  7.75020e-06
 Reference value :  7.75021e-06
 Reference value :  7.75022e-06
 Reference value :  7.75025e-06
 Reference value :  7.75029e-06
 Reference value :  7.75039e-06
 Reference value :  7.75057e-06
 Reference value :  7.75091e-06
 Reference value :  7.75157e-06
 Reference value :  7.75217e-06
 Reference value :  7.75282e-06
 Reference value :  7.75352e-06
 Reference value :  7.75442e-06
 Reference value :  7.75512e-06
 Reference value :  7.75591e-06
 Reference value :  7.75663e-06
 Reference value :  7.75741e-06
 Reference value :  7.75844e-06
 Reference value :  7.75953e-06
 Reference value :  7.76171e-06
 Reference value :  7.76402e-06
 Reference value :  7.77236e-06
 Reference value :  7.78099e-06
 Reference value :  7.79825e-06
 Reference value :  7.83278e-06
 Reference value :  7.90183e-06
 Reference value :  8.00000e-06
 Reference value :  8.00001e-06
 Reference value :  8.00003e-06
 Reference value :  8.00010e-06
 Reference value :  8.00010e-06
 Reference value :  8.00011e-06
 Reference value :  8.00013e-06
 Reference value :  8.00016e-06
 Reference value :  8.00023e-06
 Reference value :  8.00037e-06
 Reference value :  8.00056e-06
 Reference value :  8.00092e-06
 Reference value :  8.00145e-06
 Reference value :  8.00199e-06
 Reference value :  8.00265e-06
 Reference value :  8.00341e-06
 Reference value :  8.00418e-06
 Reference value :  8.00505e-06
 Reference value :  8.00587e-06
 Reference value :  8.00666e-06
 Reference value :  8.00742e-06
 Reference value :  8.00831e-06
 Reference value :  8.00922e-06
 Reference value :  8.01040e-06
 Reference value :  8.01220e-06
 Reference value :  8.01438e-06
 Reference value :  8.01717e-06
 Reference value :  8.01983e-06
 Reference value :  8.02252e-06
 Reference value :  8.02523e-06
 Reference value :  8.02812e-06
 Reference value :  8.03391e-06
 Reference value :  8.04246e-06
 Reference value :  8.07670e-06
 Reference value :  8.21030e-06
 Reference value :  8.25011e-06
 Reference value :  8.25017e-06
 Reference value :  8.25020e-06
 Reference value :  8.25020e-06
 Reference value :  8.25021e-06
 Reference value :  8.25025e-06
 Reference value :  8.25029e-06
 Reference value :  8.25039e-06
 Reference value :  8.25057e-06
 Reference value :  8.25095e-06
 Reference value :  8.25158e-06
 Reference value :  8.25221e-06
 Reference value :  8.25286e-06
 Reference value :  8.25356e-06
 Reference value :  8.25444e-06
 Reference value :  8.25540e-06
 Reference value :  8.25662e-06
 Reference value :  8.25791e-06
 Reference value :  8.25938e-06
 Reference value :  8.26204e-06
 Reference value :  8.26458e-06
 Reference value :  8.26859e-06
 Reference value :  8.27333e-06
 Reference value :  8.28281e-06
 Reference value :  8.30177e-06
 Reference value :  8.33968e-06
 Reference value :  8.41552e-06
 Reference value :  8.50000e-06
 Reference value :  8.50001e-06
 Reference value :  8.50003e-06
 Reference value :  8.50007e-06
 Reference value :  8.50010e-06
 Reference value :  8.50010e-06
 Reference value :  8.50011e-06
 Reference value :  8.50013e-06
 Reference value :  8.50016e-06
 Reference value :  8.50023e-06
 Reference value :  8.50037e-06
 Reference value :  8.50112e-06
 Reference value :  8.50246e-06
 Reference value :  8.50309e-06
 Reference value :  8.50384e-06
 Reference value :  8.50451e-06
 Reference value :  8.50531e-06
 Reference value :  8.50617e-06
 Reference value :  8.50713e-06
 Reference value :  8.50861e-06
 Reference value :  8.51022e-06
 Reference value :  8.51166e-06
 Reference value :  8.51315e-06
 Reference value :  8.51507e-06
 Reference value :  8.51767e-06
 Reference value :  8.52055e-06
 Reference value :  8.52632e-06
 Reference value :  8.53190e-06
 Reference value :  8.53719e-06
 Reference value :  8.54122e-06
 Reference value :  8.54487e-06
 Reference value :  8.54805e-06
 Reference value :  8.55047e-06
 Reference value :  8.55296e-06
 Reference value :  8.55541e-06
 Reference value :  8.55794e-06
 Reference value :  8.56138e-06
 Reference value :  8.56891e-06
 Reference value :  8.57497e-06
 Reference value :  8.58277e-06
 Reference value :  8.59629e-06
 Reference value :  8.61497e-06
 Reference value :  8.62849e-06
 Reference value :  8.64525e-06
 Reference value :  8.66369e-06
 Reference value :  8.69076e-06
 Reference value :  8.72590e-06
 Reference value :  8.75010e-06
 Reference value :  8.75011e-06
 Reference value :  8.75013e-06
 Reference value :  8.75017e-06
 Reference value :  8.75020e-06
 Reference value :  8.75020e-06
 Reference value :  8.75020e-06
 Reference value :  8.75021e-06
 Reference value :  8.75021e-06
 Reference value :  8.75022e-06
 Reference value :  8.75025e-06
 Reference value :  8.75029e-06
 Reference value :  8.75039e-06
 Reference value :  8.75057e-06
 Reference value :  8.75094e-06
 Reference value :  8.75155e-06
 Reference value :  8.75216e-06
 Reference value :  8.75280e-06
 Reference value :  8.75348e-06
 Reference value :  8.75436e-06
 Reference value :  8.75514e-06
 Reference value :  8.75601e-06
 Reference value :  8.75684e-06
 Reference value :  8.75771e-06
 Reference value :  8.75894e-06
 Reference value :  8.76056e-06
 Reference value :  8.76346e-06
 Reference value :  8.76627e-06
 Reference value :  8.77096e-06
 Reference value :  8.77714e-06
 Reference value :  8.81422e-06
 Reference value :  8.85724e-06
 Reference value :  8.94328e-06
 Reference value :  9.00000e-06
No. of Data Rows : 1404
ngspice-44 done
