
Note: Compatibility modes selected: hs a


Circuit: ** sch_path: /home/audrey/cace/sar-adc-using-sky130-pdk/runs/run_2025-09-07_19-22-36/parameters/sampling_rate/run_1/sampling_rate.sch

option SCALE: Scale is set to 1e-06 for instance and model parameters
option SCALE: Scale is set to 1e-06 for instance and model parameters
option SCALE: Scale is set to 1e-06 for instance and model parameters
option SCALE: Scale is set to 1e-06 for instance and model parameters
Doing analysis at TEMP = 27.000000 and TNOM = 27.000000

Using KLU as Direct Linear Solver
Operating point simulation skipped by 'uic',
  now using transient initial conditions.
 Reference value :  1.00000e-12
 Reference value :  1.02800e-12
 Reference value :  1.08400e-12
 Reference value :  1.19600e-12
 Reference value :  1.42000e-12
 Reference value :  1.69328e-12
 Reference value :  3.13099e-12
 Reference value :  4.36237e-12
 Reference value :  6.26917e-12
 Reference value :  9.30693e-12
 Reference value :  1.35584e-11
 Reference value :  1.98184e-11
 Reference value :  3.23384e-11
 Reference value :  5.73784e-11
 Reference value :  1.00000e-10
 Reference value :  1.05008e-10
 Reference value :  1.15024e-10
 Reference value :  1.35056e-10
 Reference value :  1.75120e-10
 Reference value :  2.55248e-10
 Reference value :  4.15504e-10
 Reference value :  6.74447e-10
 Reference value :  9.64098e-10
 Reference value :  1.38694e-09
 Reference value :  1.90516e-09
 Reference value :  2.46483e-09
 Reference value :  3.25826e-09
 Reference value :  4.16180e-09
 Reference value :  5.17420e-09
 Reference value :  6.10521e-09
 Reference value :  6.78213e-09
 Reference value :  7.49694e-09
 Reference value :  8.16217e-09
 Reference value :  8.89067e-09
 Reference value :  9.94202e-09
 Reference value :  1.09790e-08
 Reference value :  1.18593e-08
 Reference value :  1.27297e-08
 Reference value :  1.35895e-08
 Reference value :  1.44184e-08
 Reference value :  1.79161e-08
 Reference value :  2.13520e-08
 Reference value :  2.62441e-08
 Reference value :  3.07980e-08
 Reference value :  3.54189e-08
 Reference value :  4.64189e-08
 Reference value :  6.22818e-08
 Reference value :  7.56940e-08
 Reference value :  1.36733e-07
 Reference value :  2.50100e-07
 Reference value :  2.50110e-07
 Reference value :  2.50130e-07
 Reference value :  2.50170e-07
 Reference value :  2.50200e-07
 Reference value :  2.50208e-07
 Reference value :  2.50223e-07
 Reference value :  2.50254e-07
 Reference value :  2.50315e-07
 Reference value :  2.50407e-07
 Reference value :  2.50569e-07
 Reference value :  2.50731e-07
 Reference value :  2.51035e-07
 Reference value :  2.51400e-07
 Reference value :  2.51911e-07
 Reference value :  2.52374e-07
 Reference value :  2.53039e-07
 Reference value :  2.53667e-07
 Reference value :  2.54221e-07
 Reference value :  2.54810e-07
 Reference value :  2.55421e-07
 Reference value :  2.56165e-07
 Reference value :  2.58433e-07
 Reference value :  2.59852e-07
 Reference value :  2.65873e-07
 Reference value :  2.72378e-07
 Reference value :  2.84603e-07
 Reference value :  3.43692e-07
 Reference value :  4.22478e-07
 Reference value :  5.00000e-07
 Reference value :  5.00010e-07
 Reference value :  5.00030e-07
 Reference value :  5.00070e-07
 Reference value :  5.00100e-07
 Reference value :  5.00124e-07
 Reference value :  5.00220e-07
 Reference value :  5.00345e-07
 Reference value :  5.00518e-07
 Reference value :  5.00864e-07
 Reference value :  5.01310e-07
 Reference value :  5.01817e-07
 Reference value :  5.02312e-07
 Reference value :  5.02776e-07
 Reference value :  5.03345e-07
 Reference value :  5.03938e-07
 Reference value :  5.04596e-07
 Reference value :  5.05514e-07
 Reference value :  5.06435e-07
 Reference value :  5.07767e-07
 Reference value :  5.08986e-07
 Reference value :  5.10313e-07
 Reference value :  5.11668e-07
 Reference value :  5.13194e-07
 Reference value :  5.14669e-07
 Reference value :  5.16243e-07
 Reference value :  5.18439e-07
 Reference value :  5.20955e-07
 Reference value :  5.24911e-07
 Reference value :  5.30834e-07
 Reference value :  5.41524e-07
 Reference value :  5.91917e-07
 Reference value :  6.56845e-07
 Reference value :  7.50110e-07
 Reference value :  7.50130e-07
 Reference value :  7.50170e-07
 Reference value :  7.50200e-07
 Reference value :  7.50208e-07
 Reference value :  7.50224e-07
 Reference value :  7.50256e-07
 Reference value :  7.50320e-07
 Reference value :  7.50448e-07
 Reference value :  7.50698e-07
 Reference value :  7.51020e-07
 Reference value :  7.51567e-07
 Reference value :  7.52060e-07
 Reference value :  7.52584e-07
 Reference value :  7.53359e-07
 Reference value :  7.53869e-07
 Reference value :  7.54453e-07
 Reference value :  7.55026e-07
 Reference value :  7.55631e-07
 Reference value :  7.56458e-07
 Reference value :  7.57325e-07
 Reference value :  7.61352e-07
 Reference value :  7.71925e-07
 Reference value :  8.13739e-07
 Reference value :  9.80993e-07
 Reference value :  1.00000e-06
 Reference value :  1.00003e-06
 Reference value :  1.00010e-06
 Reference value :  1.00012e-06
 Reference value :  1.00016e-06
 Reference value :  1.00022e-06
 Reference value :  1.00034e-06
 Reference value :  1.00086e-06
 Reference value :  1.00131e-06
 Reference value :  1.00182e-06
 Reference value :  1.00231e-06
 Reference value :  1.00278e-06
 Reference value :  1.00332e-06
 Reference value :  1.00390e-06
 Reference value :  1.00449e-06
 Reference value :  1.00521e-06
 Reference value :  1.00584e-06
 Reference value :  1.00651e-06
 Reference value :  1.00748e-06
 Reference value :  1.00976e-06
 Reference value :  1.01133e-06
 Reference value :  1.01279e-06
 Reference value :  1.01390e-06
 Reference value :  1.01496e-06
 Reference value :  1.01612e-06
 Reference value :  1.01716e-06
 Reference value :  1.01825e-06
 Reference value :  1.01946e-06
 Reference value :  1.02139e-06
 Reference value :  1.02313e-06
 Reference value :  1.03196e-06
 Reference value :  1.04013e-06
 Reference value :  1.05042e-06
 Reference value :  1.06206e-06
 Reference value :  1.07187e-06
 Reference value :  1.07941e-06
 Reference value :  1.08586e-06
 Reference value :  1.09219e-06
 Reference value :  1.09902e-06
 Reference value :  1.10601e-06
 Reference value :  1.11288e-06
 Reference value :  1.12232e-06
 Reference value :  1.15669e-06
 Reference value :  1.18973e-06
 Reference value :  1.24988e-06
 Reference value :  1.25010e-06
 Reference value :  1.25011e-06
 Reference value :  1.25013e-06
 Reference value :  1.25017e-06
 Reference value :  1.25020e-06
 Reference value :  1.25021e-06
 Reference value :  1.25026e-06
 Reference value :  1.25032e-06
 Reference value :  1.25045e-06
 Reference value :  1.25070e-06
 Reference value :  1.25151e-06
 Reference value :  1.25203e-06
 Reference value :  1.25252e-06
 Reference value :  1.25327e-06
 Reference value :  1.25377e-06
 Reference value :  1.25434e-06
 Reference value :  1.25497e-06
 Reference value :  1.25561e-06
 Reference value :  1.25642e-06
 Reference value :  1.25796e-06
 Reference value :  1.25939e-06
 Reference value :  1.26561e-06
 Reference value :  1.28564e-06
 Reference value :  1.31235e-06
 Reference value :  1.47260e-06
 Reference value :  1.50001e-06
 Reference value :  1.50003e-06
 Reference value :  1.50010e-06
 Reference value :  1.50012e-06
 Reference value :  1.50022e-06
 Reference value :  1.50034e-06
 Reference value :  1.50052e-06
 Reference value :  1.50086e-06
 Reference value :  1.50131e-06
 Reference value :  1.50175e-06
 Reference value :  1.50223e-06
 Reference value :  1.50268e-06
 Reference value :  1.50322e-06
 Reference value :  1.50379e-06
 Reference value :  1.50442e-06
 Reference value :  1.50521e-06
 Reference value :  1.50604e-06
 Reference value :  1.50673e-06
 Reference value :  1.50746e-06
 Reference value :  1.50840e-06
 Reference value :  1.50937e-06
 Reference value :  1.51032e-06
 Reference value :  1.51146e-06
 Reference value :  1.51273e-06
 Reference value :  1.51518e-06
 Reference value :  1.51872e-06
 Reference value :  1.52520e-06
 Reference value :  1.53661e-06
 Reference value :  1.55620e-06
 Reference value :  1.67376e-06
 Reference value :  1.75011e-06
 Reference value :  1.75017e-06
 Reference value :  1.75020e-06
 Reference value :  1.75021e-06
 Reference value :  1.75026e-06
 Reference value :  1.75032e-06
 Reference value :  1.75070e-06
 Reference value :  1.75101e-06
 Reference value :  1.75156e-06
 Reference value :  1.75205e-06
 Reference value :  1.75258e-06
 Reference value :  1.75335e-06
 Reference value :  1.75386e-06
 Reference value :  1.75444e-06
 Reference value :  1.75501e-06
 Reference value :  1.75561e-06
 Reference value :  1.75646e-06
 Reference value :  1.75737e-06
 Reference value :  1.75829e-06
 Reference value :  1.76065e-06
 Reference value :  1.76499e-06
 Reference value :  1.76871e-06
 Reference value :  1.77615e-06
 Reference value :  1.79104e-06
 Reference value :  1.88036e-06
 Reference value :  1.99946e-06
 Reference value :  2.00001e-06
 Reference value :  2.00003e-06
 Reference value :  2.00007e-06
 Reference value :  2.00010e-06
 Reference value :  2.00011e-06
 Reference value :  2.00012e-06
 Reference value :  2.00016e-06
 Reference value :  2.00022e-06
 Reference value :  2.00034e-06
 Reference value :  2.00052e-06
 Reference value :  2.00086e-06
 Reference value :  2.00131e-06
 Reference value :  2.00182e-06
 Reference value :  2.00231e-06
 Reference value :  2.00278e-06
 Reference value :  2.00334e-06
 Reference value :  2.00393e-06
 Reference value :  2.00457e-06
 Reference value :  2.00518e-06
 Reference value :  2.00575e-06
 Reference value :  2.00641e-06
 Reference value :  2.00726e-06
 Reference value :  2.00818e-06
 Reference value :  2.00935e-06
 Reference value :  2.01043e-06
 Reference value :  2.01147e-06
 Reference value :  2.01263e-06
 Reference value :  2.01351e-06
 Reference value :  2.01438e-06
 Reference value :  2.01536e-06
 Reference value :  2.01637e-06
 Reference value :  2.01737e-06
 Reference value :  2.01856e-06
 Reference value :  2.02166e-06
 Reference value :  2.02808e-06
 Reference value :  2.05053e-06
 Reference value :  2.07871e-06
 Reference value :  2.11289e-06
 Reference value :  2.14545e-06
 Reference value :  2.17081e-06
 Reference value :  2.18602e-06
 Reference value :  2.20233e-06
 Reference value :  2.22200e-06
 Reference value :  2.24039e-06
 Reference value :  2.25011e-06
 Reference value :  2.25013e-06
 Reference value :  2.25017e-06
 Reference value :  2.25020e-06
 Reference value :  2.25021e-06
 Reference value :  2.25022e-06
 Reference value :  2.25032e-06
 Reference value :  2.25045e-06
 Reference value :  2.25070e-06
 Reference value :  2.25101e-06
 Reference value :  2.25151e-06
 Reference value :  2.25203e-06
 Reference value :  2.25252e-06
 Reference value :  2.25326e-06
 Reference value :  2.25379e-06
 Reference value :  2.25439e-06
 Reference value :  2.25498e-06
 Reference value :  2.25647e-06
 Reference value :  2.25771e-06
 Reference value :  2.26189e-06
 Reference value :  2.26540e-06
 Reference value :  2.27241e-06
 Reference value :  2.28642e-06
 Reference value :  2.31446e-06
 Reference value :  2.35250e-06
 Reference value :  2.38976e-06
 Reference value :  2.41945e-06
 Reference value :  2.43592e-06
 Reference value :  2.45197e-06
 Reference value :  2.46880e-06
 Reference value :  2.48478e-06
 Reference value :  2.50001e-06
 Reference value :  2.50007e-06
 Reference value :  2.50011e-06
 Reference value :  2.50012e-06
 Reference value :  2.50016e-06
 Reference value :  2.50022e-06
 Reference value :  2.50052e-06
 Reference value :  2.50086e-06
 Reference value :  2.50131e-06
 Reference value :  2.50174e-06
 Reference value :  2.50221e-06
 Reference value :  2.50267e-06
 Reference value :  2.50320e-06
 Reference value :  2.50377e-06
 Reference value :  2.50440e-06
 Reference value :  2.50519e-06
 Reference value :  2.50601e-06
 Reference value :  2.50671e-06
 Reference value :  2.50743e-06
 Reference value :  2.50836e-06
 Reference value :  2.50933e-06
 Reference value :  2.51137e-06
 Reference value :  2.51261e-06
 Reference value :  2.51866e-06
 Reference value :  2.53734e-06
 Reference value :  2.55818e-06
 Reference value :  2.59986e-06
 Reference value :  2.68322e-06
 Reference value :  2.75010e-06
 Reference value :  2.75011e-06
 Reference value :  2.75013e-06
 Reference value :  2.75017e-06
 Reference value :  2.75021e-06
 Reference value :  2.75026e-06
 Reference value :  2.75032e-06
 Reference value :  2.75070e-06
 Reference value :  2.75101e-06
 Reference value :  2.75150e-06
 Reference value :  2.75252e-06
 Reference value :  2.75326e-06
 Reference value :  2.75378e-06
 Reference value :  2.75436e-06
 Reference value :  2.75490e-06
 Reference value :  2.75548e-06
 Reference value :  2.75627e-06
 Reference value :  2.75712e-06
 Reference value :  2.75794e-06
 Reference value :  2.75894e-06
 Reference value :  2.76020e-06
 Reference value :  2.76411e-06
 Reference value :  2.77315e-06
 Reference value :  2.78169e-06
 Reference value :  2.82100e-06
 Reference value :  2.87072e-06
 Reference value :  3.00000e-06
 Reference value :  3.00003e-06
 Reference value :  3.00010e-06
 Reference value :  3.00012e-06
 Reference value :  3.00016e-06
 Reference value :  3.00022e-06
 Reference value :  3.00052e-06
 Reference value :  3.00086e-06
 Reference value :  3.00131e-06
 Reference value :  3.00182e-06
 Reference value :  3.00230e-06
 Reference value :  3.00278e-06
 Reference value :  3.00334e-06
 Reference value :  3.00392e-06
 Reference value :  3.00456e-06
 Reference value :  3.00518e-06
 Reference value :  3.00576e-06
 Reference value :  3.00642e-06
 Reference value :  3.00726e-06
 Reference value :  3.00818e-06
 Reference value :  3.00935e-06
 Reference value :  3.01042e-06
 Reference value :  3.01147e-06
 Reference value :  3.01263e-06
 Reference value :  3.01351e-06
 Reference value :  3.01437e-06
 Reference value :  3.01535e-06
 Reference value :  3.01637e-06
 Reference value :  3.01736e-06
 Reference value :  3.01856e-06
 Reference value :  3.02165e-06
 Reference value :  3.02709e-06
 Reference value :  3.03133e-06
 Reference value :  3.03551e-06
 Reference value :  3.03901e-06
 Reference value :  3.04156e-06
 Reference value :  3.04382e-06
 Reference value :  3.04624e-06
 Reference value :  3.05463e-06
 Reference value :  3.06604e-06
 Reference value :  3.07697e-06
 Reference value :  3.11894e-06
 Reference value :  3.16609e-06
 Reference value :  3.21951e-06
 Reference value :  3.25011e-06
 Reference value :  3.25013e-06
 Reference value :  3.25020e-06
 Reference value :  3.25022e-06
 Reference value :  3.25032e-06
 Reference value :  3.25070e-06
 Reference value :  3.25101e-06
 Reference value :  3.25150e-06
 Reference value :  3.25202e-06
 Reference value :  3.25251e-06
 Reference value :  3.25326e-06
 Reference value :  3.25379e-06
 Reference value :  3.25439e-06
 Reference value :  3.25497e-06
 Reference value :  3.25560e-06
 Reference value :  3.25647e-06
 Reference value :  3.25770e-06
 Reference value :  3.25928e-06
 Reference value :  3.26537e-06
 Reference value :  3.28643e-06
 Reference value :  3.37066e-06
 Reference value :  3.50000e-06
 Reference value :  3.50001e-06
 Reference value :  3.50007e-06
 Reference value :  3.50010e-06
 Reference value :  3.50012e-06
 Reference value :  3.50022e-06
 Reference value :  3.50034e-06
 Reference value :  3.50086e-06
 Reference value :  3.50131e-06
 Reference value :  3.50182e-06
 Reference value :  3.50278e-06
 Reference value :  3.50333e-06
 Reference value :  3.50391e-06
 Reference value :  3.50455e-06
 Reference value :  3.50549e-06
 Reference value :  3.50638e-06
 Reference value :  3.50718e-06
 Reference value :  3.50805e-06
 Reference value :  3.50888e-06
 Reference value :  3.50982e-06
 Reference value :  3.51087e-06
 Reference value :  3.51200e-06
 Reference value :  3.51875e-06
 Reference value :  3.52768e-06
 Reference value :  3.54552e-06
 Reference value :  3.58122e-06
 Reference value :  3.75010e-06
 Reference value :  3.75011e-06
 Reference value :  3.75017e-06
 Reference value :  3.75021e-06
 Reference value :  3.75026e-06
 Reference value :  3.75032e-06
 Reference value :  3.75045e-06
 Reference value :  3.75070e-06
 Reference value :  3.75101e-06
 Reference value :  3.75150e-06
 Reference value :  3.75202e-06
 Reference value :  3.75251e-06
 Reference value :  3.75325e-06
 Reference value :  3.75377e-06
 Reference value :  3.75437e-06
 Reference value :  3.75490e-06
 Reference value :  3.75627e-06
 Reference value :  3.75711e-06
 Reference value :  3.76088e-06
 Reference value :  3.76990e-06
 Reference value :  3.80456e-06
 Reference value :  3.94318e-06
 Reference value :  4.00001e-06
 Reference value :  4.00007e-06
 Reference value :  4.00011e-06
 Reference value :  4.00012e-06
 Reference value :  4.00016e-06
 Reference value :  4.00022e-06
 Reference value :  4.00052e-06
 Reference value :  4.00086e-06
 Reference value :  4.00131e-06
 Reference value :  4.00182e-06
 Reference value :  4.00231e-06
 Reference value :  4.00278e-06
 Reference value :  4.00332e-06
 Reference value :  4.00390e-06
 Reference value :  4.00449e-06
 Reference value :  4.00521e-06
 Reference value :  4.00584e-06
 Reference value :  4.00650e-06
 Reference value :  4.00747e-06
 Reference value :  4.00836e-06
 Reference value :  4.00976e-06
 Reference value :  4.01133e-06
 Reference value :  4.01278e-06
 Reference value :  4.01389e-06
 Reference value :  4.01496e-06
 Reference value :  4.01611e-06
 Reference value :  4.01716e-06
 Reference value :  4.01825e-06
 Reference value :  4.01946e-06
 Reference value :  4.02138e-06
 Reference value :  4.02312e-06
 Reference value :  4.02660e-06
 Reference value :  4.04011e-06
 Reference value :  4.04994e-06
 Reference value :  4.05892e-06
 Reference value :  4.06886e-06
 Reference value :  4.07636e-06
 Reference value :  4.08313e-06
 Reference value :  4.08971e-06
 Reference value :  4.09675e-06
 Reference value :  4.11333e-06
 Reference value :  4.12399e-06
 Reference value :  4.13357e-06
 Reference value :  4.13923e-06
 Reference value :  4.14562e-06
 Reference value :  4.15155e-06
 Reference value :  4.17016e-06
 Reference value :  4.18365e-06
 Reference value :  4.20933e-06
 Reference value :  4.23750e-06
 Reference value :  4.25011e-06
 Reference value :  4.25013e-06
 Reference value :  4.25017e-06
 Reference value :  4.25020e-06
 Reference value :  4.25021e-06
 Reference value :  4.25022e-06
 Reference value :  4.25026e-06
 Reference value :  4.25032e-06
 Reference value :  4.25045e-06
 Reference value :  4.25070e-06
 Reference value :  4.25101e-06
 Reference value :  4.25150e-06
 Reference value :  4.25202e-06
 Reference value :  4.25251e-06
 Reference value :  4.25325e-06
 Reference value :  4.25378e-06
 Reference value :  4.25439e-06
 Reference value :  4.25497e-06
 Reference value :  4.25560e-06
 Reference value :  4.25647e-06
 Reference value :  4.25768e-06
 Reference value :  4.25927e-06
 Reference value :  4.26184e-06
 Reference value :  4.26535e-06
 Reference value :  4.28646e-06
 Reference value :  4.31461e-06
 Reference value :  4.37090e-06
 Reference value :  4.48347e-06
 Reference value :  4.50000e-06
 Reference value :  4.50001e-06
 Reference value :  4.50003e-06
 Reference value :  4.50010e-06
 Reference value :  4.50011e-06
 Reference value :  4.50012e-06
 Reference value :  4.50016e-06
 Reference value :  4.50022e-06
 Reference value :  4.50034e-06
 Reference value :  4.50052e-06
 Reference value :  4.50086e-06
 Reference value :  4.50131e-06
 Reference value :  4.50182e-06
 Reference value :  4.50231e-06
 Reference value :  4.50278e-06
 Reference value :  4.50333e-06
 Reference value :  4.50391e-06
 Reference value :  4.50550e-06
 Reference value :  4.50639e-06
 Reference value :  4.50719e-06
 Reference value :  4.50805e-06
 Reference value :  4.50889e-06
 Reference value :  4.50982e-06
 Reference value :  4.51087e-06
 Reference value :  4.51200e-06
 Reference value :  4.51875e-06
 Reference value :  4.52768e-06
 Reference value :  4.58123e-06
 Reference value :  4.75010e-06
 Reference value :  4.75011e-06
 Reference value :  4.75013e-06
 Reference value :  4.75017e-06
 Reference value :  4.75020e-06
 Reference value :  4.75021e-06
 Reference value :  4.75022e-06
 Reference value :  4.75026e-06
 Reference value :  4.75032e-06
 Reference value :  4.75045e-06
 Reference value :  4.75070e-06
 Reference value :  4.75101e-06
 Reference value :  4.75150e-06
 Reference value :  4.75202e-06
 Reference value :  4.75251e-06
 Reference value :  4.75325e-06
 Reference value :  4.75377e-06
 Reference value :  4.75436e-06
 Reference value :  4.75490e-06
 Reference value :  4.75548e-06
 Reference value :  4.75626e-06
 Reference value :  4.75711e-06
 Reference value :  4.76088e-06
 Reference value :  4.76987e-06
 Reference value :  4.80446e-06
 Reference value :  4.85057e-06
 Reference value :  5.00000e-06
 Reference value :  5.00003e-06
 Reference value :  5.00007e-06
 Reference value :  5.00010e-06
 Reference value :  5.00011e-06
 Reference value :  5.00012e-06
 Reference value :  5.00016e-06
 Reference value :  5.00022e-06
 Reference value :  5.00034e-06
 Reference value :  5.00052e-06
 Reference value :  5.00086e-06
 Reference value :  5.00131e-06
 Reference value :  5.00182e-06
 Reference value :  5.00231e-06
 Reference value :  5.00278e-06
 Reference value :  5.00332e-06
 Reference value :  5.00390e-06
 Reference value :  5.00449e-06
 Reference value :  5.00521e-06
 Reference value :  5.00584e-06
 Reference value :  5.00650e-06
 Reference value :  5.00837e-06
 Reference value :  5.00976e-06
 Reference value :  5.01132e-06
 Reference value :  5.01278e-06
 Reference value :  5.01389e-06
 Reference value :  5.01496e-06
 Reference value :  5.01611e-06
 Reference value :  5.01716e-06
 Reference value :  5.01825e-06
 Reference value :  5.01945e-06
 Reference value :  5.02137e-06
 Reference value :  5.02311e-06
 Reference value :  5.02660e-06
 Reference value :  5.03128e-06
 Reference value :  5.03626e-06
 Reference value :  5.04200e-06
 Reference value :  5.05072e-06
 Reference value :  5.05631e-06
 Reference value :  5.06239e-06
 Reference value :  5.06898e-06
 Reference value :  5.07584e-06
 Reference value :  5.08251e-06
 Reference value :  5.10416e-06
 Reference value :  5.15335e-06
 Reference value :  5.25010e-06
 Reference value :  5.25011e-06
 Reference value :  5.25013e-06
 Reference value :  5.25017e-06
 Reference value :  5.25021e-06
 Reference value :  5.25022e-06
 Reference value :  5.25026e-06
 Reference value :  5.25032e-06
 Reference value :  5.25045e-06
 Reference value :  5.25070e-06
 Reference value :  5.25101e-06
 Reference value :  5.25150e-06
 Reference value :  5.25202e-06
 Reference value :  5.25251e-06
 Reference value :  5.25325e-06
 Reference value :  5.25375e-06
 Reference value :  5.25433e-06
 Reference value :  5.25493e-06
 Reference value :  5.25556e-06
 Reference value :  5.25779e-06
 Reference value :  5.26197e-06
 Reference value :  5.27171e-06
 Reference value :  5.31064e-06
 Reference value :  5.36256e-06
 Reference value :  5.46640e-06
 Reference value :  5.50000e-06
 Reference value :  5.50001e-06
 Reference value :  5.50003e-06
 Reference value :  5.50007e-06
 Reference value :  5.50010e-06
 Reference value :  5.50012e-06
 Reference value :  5.50016e-06
 Reference value :  5.50022e-06
 Reference value :  5.50034e-06
 Reference value :  5.50052e-06
 Reference value :  5.50086e-06
 Reference value :  5.50131e-06
 Reference value :  5.50175e-06
 Reference value :  5.50223e-06
 Reference value :  5.50268e-06
 Reference value :  5.50322e-06
 Reference value :  5.50379e-06
 Reference value :  5.50441e-06
 Reference value :  5.50521e-06
 Reference value :  5.50604e-06
 Reference value :  5.50673e-06
 Reference value :  5.50839e-06
 Reference value :  5.50937e-06
 Reference value :  5.51031e-06
 Reference value :  5.51145e-06
 Reference value :  5.51513e-06
 Reference value :  5.52487e-06
 Reference value :  5.55454e-06
 Reference value :  5.66673e-06
 Reference value :  5.75010e-06
 Reference value :  5.75011e-06
 Reference value :  5.75013e-06
 Reference value :  5.75017e-06
 Reference value :  5.75020e-06
 Reference value :  5.75022e-06
 Reference value :  5.75032e-06
 Reference value :  5.75045e-06
 Reference value :  5.75101e-06
 Reference value :  5.75150e-06
 Reference value :  5.75251e-06
 Reference value :  5.75325e-06
 Reference value :  5.75377e-06
 Reference value :  5.75436e-06
 Reference value :  5.75489e-06
 Reference value :  5.75626e-06
 Reference value :  5.75792e-06
 Reference value :  5.75893e-06
 Reference value :  5.76017e-06
 Reference value :  5.76407e-06
 Reference value :  5.76708e-06
 Reference value :  5.77309e-06
 Reference value :  5.79592e-06
 Reference value :  5.82009e-06
 Reference value :  5.86844e-06
 Reference value :  5.96233e-06
 Reference value :  6.00000e-06
 Reference value :  6.00003e-06
 Reference value :  6.00007e-06
 Reference value :  6.00010e-06
 Reference value :  6.00012e-06
 Reference value :  6.00022e-06
 Reference value :  6.00034e-06
 Reference value :  6.00086e-06
 Reference value :  6.00131e-06
 Reference value :  6.00231e-06
 Reference value :  6.00278e-06
 Reference value :  6.00334e-06
 Reference value :  6.00393e-06
 Reference value :  6.00457e-06
 Reference value :  6.00518e-06
 Reference value :  6.00575e-06
 Reference value :  6.00641e-06
 Reference value :  6.00725e-06
 Reference value :  6.00934e-06
 Reference value :  6.01043e-06
 Reference value :  6.01145e-06
 Reference value :  6.01262e-06
 Reference value :  6.01349e-06
 Reference value :  6.01432e-06
 Reference value :  6.01542e-06
 Reference value :  6.01642e-06
 Reference value :  6.01748e-06
 Reference value :  6.01870e-06
 Reference value :  6.01999e-06
 Reference value :  6.02190e-06
 Reference value :  6.02437e-06
 Reference value :  6.02930e-06
 Reference value :  6.03647e-06
 Reference value :  6.04318e-06
 Reference value :  6.06785e-06
 Reference value :  6.14545e-06
 Reference value :  6.24892e-06
 Reference value :  6.25013e-06
 Reference value :  6.25020e-06
 Reference value :  6.25022e-06
 Reference value :  6.25032e-06
 Reference value :  6.25070e-06
 Reference value :  6.25101e-06
 Reference value :  6.25150e-06
 Reference value :  6.25251e-06
 Reference value :  6.25325e-06
 Reference value :  6.25378e-06
 Reference value :  6.25438e-06
 Reference value :  6.25497e-06
 Reference value :  6.25559e-06
 Reference value :  6.25768e-06
 Reference value :  6.26182e-06
 Reference value :  6.27236e-06
 Reference value :  6.31452e-06
 Reference value :  6.48315e-06
 Reference value :  6.50001e-06
 Reference value :  6.50007e-06
 Reference value :  6.50011e-06
 Reference value :  6.50012e-06
 Reference value :  6.50022e-06
 Reference value :  6.50034e-06
 Reference value :  6.50052e-06
 Reference value :  6.50086e-06
 Reference value :  6.50131e-06
 Reference value :  6.50231e-06
 Reference value :  6.50278e-06
 Reference value :  6.50333e-06
 Reference value :  6.50391e-06
 Reference value :  6.50455e-06
 Reference value :  6.50549e-06
 Reference value :  6.50638e-06
 Reference value :  6.50718e-06
 Reference value :  6.50805e-06
 Reference value :  6.50889e-06
 Reference value :  6.50982e-06
 Reference value :  6.51087e-06
 Reference value :  6.51425e-06
 Reference value :  6.52766e-06
 Reference value :  6.54548e-06
 Reference value :  6.58112e-06
 Reference value :  6.75010e-06
 Reference value :  6.75011e-06
 Reference value :  6.75017e-06
 Reference value :  6.75021e-06
 Reference value :  6.75026e-06
 Reference value :  6.75032e-06
 Reference value :  6.75045e-06
 Reference value :  6.75070e-06
 Reference value :  6.75150e-06
 Reference value :  6.75251e-06
 Reference value :  6.75325e-06
 Reference value :  6.75377e-06
 Reference value :  6.75436e-06
 Reference value :  6.75490e-06
 Reference value :  6.75626e-06
 Reference value :  6.75877e-06
 Reference value :  6.76410e-06
 Reference value :  6.78131e-06
 Reference value :  6.85018e-06
 Reference value :  7.00000e-06
 Reference value :  7.00003e-06
 Reference value :  7.00010e-06
 Reference value :  7.00011e-06
 Reference value :  7.00016e-06
 Reference value :  7.00034e-06
 Reference value :  7.00086e-06
 Reference value :  7.00131e-06
 Reference value :  7.00231e-06
 Reference value :  7.00332e-06
 Reference value :  7.00390e-06
 Reference value :  7.00449e-06
 Reference value :  7.00521e-06
 Reference value :  7.00584e-06
 Reference value :  7.00650e-06
 Reference value :  7.00836e-06
 Reference value :  7.00975e-06
 Reference value :  7.01132e-06
 Reference value :  7.01278e-06
 Reference value :  7.01389e-06
 Reference value :  7.01496e-06
 Reference value :  7.01611e-06
 Reference value :  7.01716e-06
 Reference value :  7.01825e-06
 Reference value :  7.01946e-06
 Reference value :  7.02138e-06
 Reference value :  7.02313e-06
 Reference value :  7.03080e-06
 Reference value :  7.03776e-06
 Reference value :  7.07091e-06
 Reference value :  7.18495e-06
 Reference value :  7.25010e-06
 Reference value :  7.25011e-06
 Reference value :  7.25013e-06
 Reference value :  7.25020e-06
 Reference value :  7.25022e-06
 Reference value :  7.25026e-06
 Reference value :  7.25032e-06
 Reference value :  7.25045e-06
 Reference value :  7.25101e-06
 Reference value :  7.25150e-06
 Reference value :  7.25202e-06
 Reference value :  7.25251e-06
 Reference value :  7.25325e-06
 Reference value :  7.25378e-06
 Reference value :  7.25438e-06
 Reference value :  7.25497e-06
 Reference value :  7.25559e-06
 Reference value :  7.25647e-06
 Reference value :  7.25926e-06
 Reference value :  7.26180e-06
 Reference value :  7.26531e-06
 Reference value :  7.28642e-06
 Reference value :  7.37083e-06
 Reference value :  7.50000e-06
 Reference value :  7.50001e-06
 Reference value :  7.50003e-06
 Reference value :  7.50007e-06
 Reference value :  7.50010e-06
 Reference value :  7.50012e-06
 Reference value :  7.50022e-06
 Reference value :  7.50034e-06
 Reference value :  7.50052e-06
 Reference value :  7.50086e-06
 Reference value :  7.50131e-06
 Reference value :  7.50182e-06
 Reference value :  7.50231e-06
 Reference value :  7.50278e-06
 Reference value :  7.50333e-06
 Reference value :  7.50391e-06
 Reference value :  7.50550e-06
 Reference value :  7.50639e-06
 Reference value :  7.50719e-06
 Reference value :  7.50806e-06
 Reference value :  7.50889e-06
 Reference value :  7.50983e-06
 Reference value :  7.51088e-06
 Reference value :  7.51425e-06
 Reference value :  7.52766e-06
 Reference value :  7.58113e-06
 Reference value :  7.75010e-06
 Reference value :  7.75011e-06
 Reference value :  7.75013e-06
 Reference value :  7.75017e-06
 Reference value :  7.75020e-06
 Reference value :  7.75021e-06
 Reference value :  7.75026e-06
 Reference value :  7.75032e-06
 Reference value :  7.75045e-06
 Reference value :  7.75070e-06
 Reference value :  7.75101e-06
 Reference value :  7.75150e-06
 Reference value :  7.75202e-06
 Reference value :  7.75251e-06
 Reference value :  7.75325e-06
 Reference value :  7.75377e-06
 Reference value :  7.75436e-06
 Reference value :  7.75489e-06
 Reference value :  7.75548e-06
 Reference value :  7.75626e-06
 Reference value :  7.75877e-06
 Reference value :  7.76086e-06
 Reference value :  7.76983e-06
 Reference value :  7.80424e-06
 Reference value :  7.94189e-06
 Reference value :  8.00000e-06
 Reference value :  8.00003e-06
 Reference value :  8.00007e-06
 Reference value :  8.00010e-06
 Reference value :  8.00012e-06
 Reference value :  8.00016e-06
 Reference value :  8.00034e-06
 Reference value :  8.00052e-06
 Reference value :  8.00086e-06
 Reference value :  8.00131e-06
 Reference value :  8.00182e-06
 Reference value :  8.00231e-06
 Reference value :  8.00278e-06
 Reference value :  8.00332e-06
 Reference value :  8.00390e-06
 Reference value :  8.00449e-06
 Reference value :  8.00521e-06
 Reference value :  8.00584e-06
 Reference value :  8.00650e-06
 Reference value :  8.00747e-06
 Reference value :  8.00836e-06
 Reference value :  8.01026e-06
 Reference value :  8.01141e-06
 Reference value :  8.01781e-06
 Reference value :  8.04100e-06
 Reference value :  8.13218e-06
 Reference value :  8.25010e-06
 Reference value :  8.25013e-06
 Reference value :  8.25020e-06
 Reference value :  8.25022e-06
 Reference value :  8.25026e-06
 Reference value :  8.25045e-06
 Reference value :  8.25070e-06
 Reference value :  8.25101e-06
 Reference value :  8.25150e-06
 Reference value :  8.25202e-06
 Reference value :  8.25251e-06
 Reference value :  8.25324e-06
 Reference value :  8.25400e-06
 Reference value :  8.25501e-06
 Reference value :  8.25602e-06
 Reference value :  8.25697e-06
 Reference value :  8.25854e-06
 Reference value :  8.26021e-06
 Reference value :  8.26795e-06
 Reference value :  8.27749e-06
 Reference value :  8.29658e-06
 Reference value :  8.33474e-06
 Reference value :  8.41108e-06
 Reference value :  8.50000e-06
 Reference value :  8.50003e-06
 Reference value :  8.50007e-06
 Reference value :  8.50010e-06
 Reference value :  8.50011e-06
 Reference value :  8.50012e-06
 Reference value :  8.50022e-06
 Reference value :  8.50035e-06
 Reference value :  8.50060e-06
 Reference value :  8.50094e-06
 Reference value :  8.50143e-06
 Reference value :  8.50195e-06
 Reference value :  8.50244e-06
 Reference value :  8.50297e-06
 Reference value :  8.50357e-06
 Reference value :  8.50424e-06
 Reference value :  8.50489e-06
 Reference value :  8.50563e-06
 Reference value :  8.50631e-06
 Reference value :  8.50714e-06
 Reference value :  8.50849e-06
 Reference value :  8.51027e-06
 Reference value :  8.51378e-06
 Reference value :  8.51988e-06
 Reference value :  8.52616e-06
 Reference value :  8.53071e-06
 Reference value :  8.53815e-06
 Reference value :  8.54365e-06
 Reference value :  8.55437e-06
 Reference value :  8.58557e-06
 Reference value :  8.66790e-06
 Reference value :  8.75011e-06
 Reference value :  8.75017e-06
 Reference value :  8.75022e-06
 Reference value :  8.75045e-06
 Reference value :  8.75101e-06
 Reference value :  8.75202e-06
 Reference value :  8.75323e-06
 Reference value :  8.75436e-06
 Reference value :  8.75492e-06
 Reference value :  8.75753e-06
 Reference value :  8.77177e-06
 Reference value :  8.86735e-06
No. of Data Rows : 1307
ngspice-44 done
