
Note: Compatibility modes selected: hs a


Circuit: ** sch_path: /home/samantha/cace/sar-adc-using-sky130-pdk/runs/run_2025-09-04_12-33-47/parameters/sndr/run_0/sndr_enob_fom.sch

option SCALE: Scale is set to 1e-06 for instance and model parameters
option SCALE: Scale is set to 1e-06 for instance and model parameters
option SCALE: Scale is set to 1e-06 for instance and model parameters
option SCALE: Scale is set to 1e-06 for instance and model parameters
Doing analysis at TEMP = 27.000000 and TNOM = 27.000000

Using KLU as Direct Linear Solver
Operating point simulation skipped by 'uic',
  now using transient initial conditions.
 Reference value :  1.00000e-12
 Reference value :  1.08400e-12
 Reference value :  1.72266e-12
 Reference value :  4.45520e-12
 Reference value :  1.35782e-11
 Reference value :  6.36249e-11
 Reference value :  1.05720e-10
 Reference value :  1.40037e-10
 Reference value :  4.60336e-10
 Reference value :  9.70161e-10
 Reference value :  1.88031e-09
 Reference value :  3.17827e-09
 Reference value :  5.05096e-09
 Reference value :  6.75682e-09
 Reference value :  8.44342e-09
 Reference value :  1.22889e-08
 Reference value :  1.36736e-08
 Reference value :  1.47180e-08
 Reference value :  1.69321e-08
 Reference value :  2.22831e-08
 Reference value :  4.07073e-08
 Reference value :  7.42299e-08
 Reference value :  1.04888e-07
 Reference value :  1.28197e-07
 Reference value :  1.50691e-07
 Reference value :  2.19756e-07
 Reference value :  2.50130e-07
 Reference value :  2.50207e-07
 Reference value :  2.50252e-07
 Reference value :  2.50403e-07
 Reference value :  2.50989e-07
 Reference value :  2.51917e-07
 Reference value :  2.53681e-07
 Reference value :  2.55612e-07
 Reference value :  2.58664e-07
 Reference value :  2.74604e-07
 Reference value :  3.38884e-07
 Reference value :  5.00010e-07
 Reference value :  5.00100e-07
 Reference value :  5.00155e-07
 Reference value :  5.00531e-07
 Reference value :  5.01207e-07
 Reference value :  5.01590e-07
 Reference value :  5.03013e-07
 Reference value :  5.04136e-07
 Reference value :  5.06888e-07
 Reference value :  5.09391e-07
 Reference value :  5.12016e-07
 Reference value :  5.14777e-07
 Reference value :  5.18863e-07
 Reference value :  5.38739e-07
 Reference value :  6.53492e-07
 Reference value :  7.50130e-07
 Reference value :  7.50208e-07
 Reference value :  7.50224e-07
 Reference value :  7.50320e-07
 Reference value :  7.50874e-07
 Reference value :  7.51771e-07
 Reference value :  7.53498e-07
 Reference value :  7.53996e-07
 Reference value :  7.55176e-07
 Reference value :  7.56678e-07
 Reference value :  7.58465e-07
 Reference value :  7.63260e-07
 Reference value :  7.66554e-07
 Reference value :  7.92845e-07
 Reference value :  9.07335e-07
 Reference value :  1.00003e-06
 Reference value :  1.00011e-06
 Reference value :  1.00016e-06
 Reference value :  1.00053e-06
 Reference value :  1.00163e-06
 Reference value :  1.00259e-06
 Reference value :  1.00365e-06
 Reference value :  1.00472e-06
 Reference value :  1.00522e-06
 Reference value :  1.00645e-06
 Reference value :  1.00817e-06
 Reference value :  1.01020e-06
 Reference value :  1.01210e-06
 Reference value :  1.01380e-06
 Reference value :  1.01551e-06
 Reference value :  1.01728e-06
 Reference value :  1.01934e-06
 Reference value :  1.02728e-06
 Reference value :  1.06787e-06
 Reference value :  1.24429e-06
 Reference value :  1.25013e-06
 Reference value :  1.25021e-06
 Reference value :  1.25032e-06
 Reference value :  1.25087e-06
 Reference value :  1.25177e-06
 Reference value :  1.25280e-06
 Reference value :  1.25400e-06
 Reference value :  1.25513e-06
 Reference value :  1.25656e-06
 Reference value :  1.26263e-06
 Reference value :  1.28823e-06
 Reference value :  1.48227e-06
 Reference value :  1.50003e-06
 Reference value :  1.50011e-06
 Reference value :  1.50022e-06
 Reference value :  1.50088e-06
 Reference value :  1.50159e-06
 Reference value :  1.50252e-06
 Reference value :  1.50357e-06
 Reference value :  1.50490e-06
 Reference value :  1.50625e-06
 Reference value :  1.50796e-06
 Reference value :  1.50987e-06
 Reference value :  1.51230e-06
 Reference value :  1.52611e-06
 Reference value :  1.61286e-06
 Reference value :  1.75011e-06
 Reference value :  1.75020e-06
 Reference value :  1.75022e-06
 Reference value :  1.75045e-06
 Reference value :  1.75136e-06
 Reference value :  1.75222e-06
 Reference value :  1.75350e-06
 Reference value :  1.75400e-06
 Reference value :  1.75518e-06
 Reference value :  1.75669e-06
 Reference value :  1.75862e-06
 Reference value :  1.76355e-06
 Reference value :  1.79447e-06
 Reference value :  1.90798e-06
 Reference value :  2.00001e-06
 Reference value :  2.00007e-06
 Reference value :  2.00012e-06
 Reference value :  2.00034e-06
 Reference value :  2.00089e-06
 Reference value :  2.00163e-06
 Reference value :  2.00259e-06
 Reference value :  2.00365e-06
 Reference value :  2.00473e-06
 Reference value :  2.00523e-06
 Reference value :  2.00646e-06
 Reference value :  2.00819e-06
 Reference value :  2.01023e-06
 Reference value :  2.01214e-06
 Reference value :  2.01384e-06
 Reference value :  2.01565e-06
 Reference value :  2.01749e-06
 Reference value :  2.01977e-06
 Reference value :  2.02880e-06
 Reference value :  2.07234e-06
 Reference value :  2.14103e-06
 Reference value :  2.20062e-06
 Reference value :  2.21978e-06
 Reference value :  2.25010e-06
 Reference value :  2.25017e-06
 Reference value :  2.25022e-06
 Reference value :  2.25045e-06
 Reference value :  2.25136e-06
 Reference value :  2.25222e-06
 Reference value :  2.25352e-06
 Reference value :  2.25460e-06
 Reference value :  2.25585e-06
 Reference value :  2.25996e-06
 Reference value :  2.27395e-06
 Reference value :  2.37099e-06
 Reference value :  2.50001e-06
 Reference value :  2.50010e-06
 Reference value :  2.50016e-06
 Reference value :  2.50053e-06
 Reference value :  2.50121e-06
 Reference value :  2.50211e-06
 Reference value :  2.50308e-06
 Reference value :  2.50421e-06
 Reference value :  2.50576e-06
 Reference value :  2.50642e-06
 Reference value :  2.50804e-06
 Reference value :  2.51109e-06
 Reference value :  2.52420e-06
 Reference value :  2.65346e-06
 Reference value :  2.75013e-06
 Reference value :  2.75020e-06
 Reference value :  2.75026e-06
 Reference value :  2.75063e-06
 Reference value :  2.75177e-06
 Reference value :  2.75350e-06
 Reference value :  2.75458e-06
 Reference value :  2.75593e-06
 Reference value :  2.76010e-06
 Reference value :  2.77483e-06
 Reference value :  2.87299e-06
 Reference value :  3.00001e-06
 Reference value :  3.00010e-06
 Reference value :  3.00016e-06
 Reference value :  3.00053e-06
 Reference value :  3.00121e-06
 Reference value :  3.00211e-06
 Reference value :  3.00308e-06
 Reference value :  3.00420e-06
 Reference value :  3.00528e-06
 Reference value :  3.00675e-06
 Reference value :  3.01121e-06
 Reference value :  3.01276e-06
 Reference value :  3.01406e-06
 Reference value :  3.01655e-06
 Reference value :  3.01922e-06
 Reference value :  3.02530e-06
 Reference value :  3.04668e-06
 Reference value :  3.06188e-06
 Reference value :  3.07236e-06
 Reference value :  3.08403e-06
 Reference value :  3.10508e-06
 Reference value :  3.15885e-06
 Reference value :  3.25011e-06
 Reference value :  3.25020e-06
 Reference value :  3.25026e-06
 Reference value :  3.25063e-06
 Reference value :  3.25177e-06
 Reference value :  3.25347e-06
 Reference value :  3.25453e-06
 Reference value :  3.25576e-06
 Reference value :  3.25974e-06
 Reference value :  3.27296e-06
 Reference value :  3.47532e-06
 Reference value :  3.50003e-06
 Reference value :  3.50011e-06
 Reference value :  3.50022e-06
 Reference value :  3.50088e-06
 Reference value :  3.50159e-06
 Reference value :  3.50301e-06
 Reference value :  3.50411e-06
 Reference value :  3.50563e-06
 Reference value :  3.50625e-06
 Reference value :  3.50795e-06
 Reference value :  3.50985e-06
 Reference value :  3.51227e-06
 Reference value :  3.52592e-06
 Reference value :  3.61132e-06
 Reference value :  3.75011e-06
 Reference value :  3.75020e-06
 Reference value :  3.75026e-06
 Reference value :  3.75063e-06
 Reference value :  3.75177e-06
 Reference value :  3.75280e-06
 Reference value :  3.75399e-06
 Reference value :  3.75517e-06
 Reference value :  3.75669e-06
 Reference value :  3.75862e-06
 Reference value :  3.76354e-06
 Reference value :  3.79378e-06
 Reference value :  3.90187e-06
 Reference value :  4.00001e-06
 Reference value :  4.00010e-06
 Reference value :  4.00016e-06
 Reference value :  4.00053e-06
 Reference value :  4.00163e-06
 Reference value :  4.00259e-06
 Reference value :  4.00365e-06
 Reference value :  4.00473e-06
 Reference value :  4.00523e-06
 Reference value :  4.00646e-06
 Reference value :  4.00820e-06
 Reference value :  4.01023e-06
 Reference value :  4.01240e-06
 Reference value :  4.01473e-06
 Reference value :  4.01692e-06
 Reference value :  4.02073e-06
 Reference value :  4.03049e-06
 Reference value :  4.04783e-06
 Reference value :  4.06638e-06
 Reference value :  4.07459e-06
 Reference value :  4.09421e-06
 Reference value :  4.12429e-06
 Reference value :  4.18745e-06
 Reference value :  4.25011e-06
 Reference value :  4.25020e-06
 Reference value :  4.25026e-06
 Reference value :  4.25061e-06
 Reference value :  4.25151e-06
 Reference value :  4.25306e-06
 Reference value :  4.25426e-06
 Reference value :  4.25615e-06
 Reference value :  4.26062e-06
 Reference value :  4.29349e-06
 Reference value :  4.50000e-06
 Reference value :  4.50007e-06
 Reference value :  4.50012e-06
 Reference value :  4.50022e-06
 Reference value :  4.50096e-06
 Reference value :  4.50242e-06
 Reference value :  4.50348e-06
 Reference value :  4.50548e-06
 Reference value :  4.50606e-06
 Reference value :  4.50858e-06
 Reference value :  4.51058e-06
 Reference value :  4.51589e-06
 Reference value :  4.53649e-06
 Reference value :  4.66599e-06
 Reference value :  4.75013e-06
 Reference value :  4.75021e-06
 Reference value :  4.75032e-06
 Reference value :  4.75082e-06
 Reference value :  4.75151e-06
 Reference value :  4.75306e-06
 Reference value :  4.75426e-06
 Reference value :  4.75544e-06
 Reference value :  4.75694e-06
 Reference value :  4.76355e-06
 Reference value :  4.79346e-06
 Reference value :  4.99707e-06
 Reference value :  5.00003e-06
 Reference value :  5.00011e-06
 Reference value :  5.00022e-06
 Reference value :  5.00096e-06
 Reference value :  5.00242e-06
 Reference value :  5.00348e-06
 Reference value :  5.00519e-06
 Reference value :  5.00651e-06
 Reference value :  5.01069e-06
 Reference value :  5.01216e-06
 Reference value :  5.01497e-06
 Reference value :  5.01754e-06
 Reference value :  5.02215e-06
 Reference value :  5.03364e-06
 Reference value :  5.06227e-06
 Reference value :  5.07628e-06
 Reference value :  5.08340e-06
 Reference value :  5.10796e-06
 Reference value :  5.15466e-06
 Reference value :  5.25010e-06
 Reference value :  5.25017e-06
 Reference value :  5.25022e-06
 Reference value :  5.25032e-06
 Reference value :  5.25079e-06
 Reference value :  5.25152e-06
 Reference value :  5.25242e-06
 Reference value :  5.25373e-06
 Reference value :  5.25427e-06
 Reference value :  5.25623e-06
 Reference value :  5.26091e-06
 Reference value :  5.27858e-06
 Reference value :  5.39803e-06
 Reference value :  5.50003e-06
 Reference value :  5.50011e-06
 Reference value :  5.50022e-06
 Reference value :  5.50096e-06
 Reference value :  5.50185e-06
 Reference value :  5.50294e-06
 Reference value :  5.50407e-06
 Reference value :  5.50545e-06
 Reference value :  5.50603e-06
 Reference value :  5.50860e-06
 Reference value :  5.51063e-06
 Reference value :  5.51614e-06
 Reference value :  5.53773e-06
 Reference value :  5.67810e-06
 Reference value :  5.75013e-06
 Reference value :  5.75020e-06
 Reference value :  5.75026e-06
 Reference value :  5.75061e-06
 Reference value :  5.75151e-06
 Reference value :  5.75240e-06
 Reference value :  5.75373e-06
 Reference value :  5.75485e-06
 Reference value :  5.75616e-06
 Reference value :  5.75864e-06
 Reference value :  5.76327e-06
 Reference value :  5.77766e-06
 Reference value :  5.82980e-06
 Reference value :  6.00000e-06
 Reference value :  6.00007e-06
 Reference value :  6.00012e-06
 Reference value :  6.00034e-06
 Reference value :  6.00138e-06
 Reference value :  6.00241e-06
 Reference value :  6.00349e-06
 Reference value :  6.00474e-06
 Reference value :  6.00588e-06
 Reference value :  6.00849e-06
 Reference value :  6.01062e-06
 Reference value :  6.01285e-06
 Reference value :  6.01371e-06
 Reference value :  6.01550e-06
 Reference value :  6.01846e-06
 Reference value :  6.02341e-06
 Reference value :  6.03231e-06
 Reference value :  6.04011e-06
 Reference value :  6.04665e-06
 Reference value :  6.06310e-06
 Reference value :  6.14070e-06
 Reference value :  6.25011e-06
 Reference value :  6.25020e-06
 Reference value :  6.25026e-06
 Reference value :  6.25061e-06
 Reference value :  6.25152e-06
 Reference value :  6.25242e-06
 Reference value :  6.25377e-06
 Reference value :  6.25491e-06
 Reference value :  6.25622e-06
 Reference value :  6.26081e-06
 Reference value :  6.27813e-06
 Reference value :  6.39808e-06
 Reference value :  6.50003e-06
 Reference value :  6.50011e-06
 Reference value :  6.50022e-06
 Reference value :  6.50096e-06
 Reference value :  6.50185e-06
 Reference value :  6.50348e-06
 Reference value :  6.50473e-06
 Reference value :  6.50606e-06
 Reference value :  6.50769e-06
 Reference value :  6.50961e-06
 Reference value :  6.51189e-06
 Reference value :  6.51947e-06
 Reference value :  6.58980e-06
 Reference value :  6.75011e-06
 Reference value :  6.75020e-06
 Reference value :  6.75026e-06
 Reference value :  6.75061e-06
 Reference value :  6.75151e-06
 Reference value :  6.75306e-06
 Reference value :  6.75426e-06
 Reference value :  6.75617e-06
 Reference value :  6.76065e-06
 Reference value :  6.77700e-06
 Reference value :  6.87981e-06
 Reference value :  7.00001e-06
 Reference value :  7.00010e-06
 Reference value :  7.00016e-06
 Reference value :  7.00057e-06
 Reference value :  7.00185e-06
 Reference value :  7.00348e-06
 Reference value :  7.00468e-06
 Reference value :  7.00519e-06
 Reference value :  7.00651e-06
 Reference value :  7.01069e-06
 Reference value :  7.01216e-06
 Reference value :  7.01500e-06
 Reference value :  7.01744e-06
 Reference value :  7.02189e-06
 Reference value :  7.04136e-06
 Reference value :  7.13655e-06
 Reference value :  7.25011e-06
 Reference value :  7.25020e-06
 Reference value :  7.25026e-06
 Reference value :  7.25061e-06
 Reference value :  7.25152e-06
 Reference value :  7.25242e-06
 Reference value :  7.25376e-06
 Reference value :  7.25430e-06
 Reference value :  7.25623e-06
 Reference value :  7.26085e-06
 Reference value :  7.27832e-06
 Reference value :  7.39791e-06
 Reference value :  7.50003e-06
 Reference value :  7.50011e-06
 Reference value :  7.50022e-06
 Reference value :  7.50096e-06
 Reference value :  7.50242e-06
 Reference value :  7.50348e-06
 Reference value :  7.50548e-06
 Reference value :  7.50606e-06
 Reference value :  7.50769e-06
 Reference value :  7.50962e-06
 Reference value :  7.51191e-06
 Reference value :  7.51951e-06
 Reference value :  7.55415e-06
 Reference value :  7.75010e-06
 Reference value :  7.75017e-06
 Reference value :  7.75022e-06
 Reference value :  7.75042e-06
 Reference value :  7.75111e-06
 Reference value :  7.75195e-06
 Reference value :  7.75306e-06
 Reference value :  7.75425e-06
 Reference value :  7.75543e-06
 Reference value :  7.75692e-06
 Reference value :  7.75844e-06
 Reference value :  7.76800e-06
 Reference value :  7.82254e-06
 Reference value :  8.00000e-06
 Reference value :  8.00007e-06
 Reference value :  8.00012e-06
 Reference value :  8.00034e-06
 Reference value :  8.00138e-06
 Reference value :  8.00241e-06
 Reference value :  8.00349e-06
 Reference value :  8.00468e-06
 Reference value :  8.00576e-06
 Reference value :  8.00728e-06
 Reference value :  8.00888e-06
 Reference value :  8.01092e-06
 Reference value :  8.02443e-06
 Reference value :  8.12502e-06
 Reference value :  8.25011e-06
 Reference value :  8.25020e-06
 Reference value :  8.25026e-06
 Reference value :  8.25063e-06
 Reference value :  8.25160e-06
 Reference value :  8.25324e-06
 Reference value :  8.25484e-06
 Reference value :  8.25845e-06
 Reference value :  8.26703e-06
 Reference value :  8.32043e-06
 Reference value :  8.50001e-06
 Reference value :  8.50010e-06
 Reference value :  8.50016e-06
 Reference value :  8.50057e-06
 Reference value :  8.50141e-06
 Reference value :  8.50309e-06
 Reference value :  8.50427e-06
 Reference value :  8.50528e-06
 Reference value :  8.50664e-06
 Reference value :  8.51803e-06
 Reference value :  8.52377e-06
 Reference value :  8.52970e-06
 Reference value :  8.53370e-06
 Reference value :  8.53955e-06
 Reference value :  8.54335e-06
 Reference value :  8.55071e-06
 Reference value :  8.55891e-06
 Reference value :  8.56892e-06
 Reference value :  8.60247e-06
 Reference value :  8.67042e-06
 Reference value :  8.69651e-06
 Reference value :  8.70857e-06
 Reference value :  8.71644e-06
 Reference value :  8.73456e-06
 Reference value :  8.75010e-06
 Reference value :  8.75017e-06
 Reference value :  8.75022e-06
 Reference value :  8.75045e-06
 Reference value :  8.75136e-06
 Reference value :  8.75177e-06
 Reference value :  8.75346e-06
 Reference value :  8.75396e-06
 Reference value :  8.75504e-06
 Reference value :  8.75642e-06
 Reference value :  8.76224e-06
 Reference value :  8.81197e-06
 Reference value :  9.00000e-06
 Reference value :  9.00007e-06
 Reference value :  9.00012e-06
 Reference value :  9.00034e-06
 Reference value :  9.00088e-06
 Reference value :  9.00159e-06
 Reference value :  9.00252e-06
 Reference value :  9.00356e-06
 Reference value :  9.00559e-06
 Reference value :  9.00825e-06
 Reference value :  9.01061e-06
 Reference value :  9.01200e-06
 Reference value :  9.01470e-06
 Reference value :  9.01870e-06
 Reference value :  9.03773e-06
 Reference value :  9.13986e-06
 Reference value :  9.25011e-06
 Reference value :  9.25020e-06
 Reference value :  9.25022e-06
 Reference value :  9.25032e-06
 Reference value :  9.25087e-06
 Reference value :  9.25177e-06
 Reference value :  9.25280e-06
 Reference value :  9.25398e-06
 Reference value :  9.25515e-06
 Reference value :  9.25588e-06
 Reference value :  9.25739e-06
 Reference value :  9.25909e-06
 Reference value :  9.26533e-06
 Reference value :  9.28454e-06
 Reference value :  9.38340e-06
 Reference value :  9.50001e-06
 Reference value :  9.50010e-06
 Reference value :  9.50016e-06
 Reference value :  9.50053e-06
 Reference value :  9.50121e-06
 Reference value :  9.50163e-06
 Reference value :  9.50259e-06
 Reference value :  9.50365e-06
 Reference value :  9.50473e-06
 Reference value :  9.50523e-06
 Reference value :  9.50646e-06
 Reference value :  9.50819e-06
 Reference value :  9.51022e-06
 Reference value :  9.51120e-06
 Reference value :  9.51213e-06
 Reference value :  9.51382e-06
 Reference value :  9.51561e-06
 Reference value :  9.51743e-06
 Reference value :  9.51963e-06
 Reference value :  9.52841e-06
 Reference value :  9.57070e-06
 Reference value :  9.74700e-06
 Reference value :  9.75013e-06
 Reference value :  9.75021e-06
 Reference value :  9.75032e-06
 Reference value :  9.75087e-06
 Reference value :  9.75177e-06
 Reference value :  9.75280e-06
 Reference value :  9.75400e-06
 Reference value :  9.75513e-06
 Reference value :  9.75656e-06
 Reference value :  9.76264e-06
 Reference value :  9.78828e-06
 Reference value :  9.97477e-06
 Reference value :  1.00000e-05
 Reference value :  1.00001e-05
 Reference value :  1.00002e-05
 Reference value :  1.00009e-05
 Reference value :  1.00016e-05
 Reference value :  1.00030e-05
 Reference value :  1.00041e-05
 Reference value :  1.00056e-05
 Reference value :  1.00063e-05
 Reference value :  1.00080e-05
 Reference value :  1.00099e-05
 Reference value :  1.00123e-05
 Reference value :  1.00257e-05
 Reference value :  1.01059e-05
 Reference value :  1.02501e-05
 Reference value :  1.02502e-05
 Reference value :  1.02503e-05
 Reference value :  1.02506e-05
 Reference value :  1.02518e-05
 Reference value :  1.02528e-05
 Reference value :  1.02540e-05
 Reference value :  1.02552e-05
 Reference value :  1.02567e-05
 Reference value :  1.02586e-05
 Reference value :  1.02617e-05
 Reference value :  1.02725e-05
 Reference value :  1.03156e-05
 Reference value :  1.04982e-05
 Reference value :  1.05000e-05
 Reference value :  1.05001e-05
 Reference value :  1.05002e-05
 Reference value :  1.05009e-05
 Reference value :  1.05016e-05
 Reference value :  1.05026e-05
 Reference value :  1.05037e-05
 Reference value :  1.05047e-05
 Reference value :  1.05052e-05
 Reference value :  1.05065e-05
 Reference value :  1.05082e-05
 Reference value :  1.05102e-05
 Reference value :  1.05122e-05
 Reference value :  1.05139e-05
 Reference value :  1.05158e-05
 Reference value :  1.05178e-05
 Reference value :  1.05204e-05
 Reference value :  1.05302e-05
 Reference value :  1.05686e-05
 Reference value :  1.06295e-05
 Reference value :  1.06961e-05
 Reference value :  1.07172e-05
 Reference value :  1.07501e-05
 Reference value :  1.07502e-05
 Reference value :  1.07502e-05
 Reference value :  1.07504e-05
 Reference value :  1.07514e-05
 Reference value :  1.07522e-05
 Reference value :  1.07535e-05
 Reference value :  1.07540e-05
 Reference value :  1.07558e-05
 Reference value :  1.07599e-05
 Reference value :  1.07738e-05
 Reference value :  1.08684e-05
 Reference value :  1.10000e-05
 Reference value :  1.10001e-05
 Reference value :  1.10002e-05
 Reference value :  1.10005e-05
 Reference value :  1.10012e-05
 Reference value :  1.10021e-05
 Reference value :  1.10031e-05
 Reference value :  1.10042e-05
 Reference value :  1.10058e-05
 Reference value :  1.10072e-05
 Reference value :  1.10090e-05
 Reference value :  1.10111e-05
 Reference value :  1.10180e-05
 Reference value :  1.10502e-05
 Reference value :  1.12501e-05
 Reference value :  1.12502e-05
 Reference value :  1.12502e-05
 Reference value :  1.12504e-05
 Reference value :  1.12514e-05
 Reference value :  1.12522e-05
 Reference value :  1.12535e-05
 Reference value :  1.12546e-05
 Reference value :  1.12552e-05
 Reference value :  1.12581e-05
 Reference value :  1.12669e-05
 Reference value :  1.13170e-05
 Reference value :  1.15000e-05
 Reference value :  1.15001e-05
 Reference value :  1.15001e-05
 Reference value :  1.15003e-05
 Reference value :  1.15012e-05
 Reference value :  1.15021e-05
 Reference value :  1.15031e-05
 Reference value :  1.15042e-05
 Reference value :  1.15053e-05
 Reference value :  1.15076e-05
 Reference value :  1.15112e-05
 Reference value :  1.15128e-05
 Reference value :  1.15141e-05
 Reference value :  1.15166e-05
 Reference value :  1.15206e-05
 Reference value :  1.15300e-05
 Reference value :  1.15466e-05
 Reference value :  1.15612e-05
 Reference value :  1.15718e-05
 Reference value :  1.15833e-05
 Reference value :  1.15897e-05
 Reference value :  1.16136e-05
 Reference value :  1.16960e-05
 Reference value :  1.17501e-05
 Reference value :  1.17502e-05
 Reference value :  1.17503e-05
 Reference value :  1.17509e-05
 Reference value :  1.17518e-05
 Reference value :  1.17528e-05
 Reference value :  1.17540e-05
 Reference value :  1.17551e-05
 Reference value :  1.17565e-05
 Reference value :  1.17625e-05
 Reference value :  1.17870e-05
 Reference value :  1.19722e-05
 Reference value :  1.20000e-05
 Reference value :  1.20001e-05
 Reference value :  1.20002e-05
 Reference value :  1.20009e-05
 Reference value :  1.20016e-05
 Reference value :  1.20030e-05
 Reference value :  1.20041e-05
 Reference value :  1.20056e-05
 Reference value :  1.20062e-05
 Reference value :  1.20079e-05
 Reference value :  1.20110e-05
 Reference value :  1.20186e-05
 Reference value :  1.20619e-05
 Reference value :  1.22501e-05
 Reference value :  1.22502e-05
 Reference value :  1.22502e-05
 Reference value :  1.22504e-05
 Reference value :  1.22514e-05
 Reference value :  1.22522e-05
 Reference value :  1.22535e-05
 Reference value :  1.22546e-05
 Reference value :  1.22559e-05
 Reference value :  1.22586e-05
 Reference value :  1.22635e-05
 Reference value :  1.22801e-05
 Reference value :  1.23479e-05
 Reference value :  1.25000e-05
 Reference value :  1.25001e-05
 Reference value :  1.25001e-05
 Reference value :  1.25003e-05
 Reference value :  1.25012e-05
 Reference value :  1.25021e-05
 Reference value :  1.25031e-05
 Reference value :  1.25042e-05
 Reference value :  1.25052e-05
 Reference value :  1.25065e-05
 Reference value :  1.25082e-05
 Reference value :  1.25102e-05
 Reference value :  1.25124e-05
 Reference value :  1.25147e-05
 Reference value :  1.25167e-05
 Reference value :  1.25203e-05
 Reference value :  1.25297e-05
 Reference value :  1.25436e-05
 Reference value :  1.25577e-05
 Reference value :  1.25614e-05
 Reference value :  1.25693e-05
 Reference value :  1.25895e-05
 Reference value :  1.26087e-05
 Reference value :  1.26564e-05
 Reference value :  1.27501e-05
 Reference value :  1.27501e-05
 Reference value :  1.27502e-05
 Reference value :  1.27503e-05
 Reference value :  1.27508e-05
 Reference value :  1.27515e-05
 Reference value :  1.27531e-05
 Reference value :  1.27543e-05
 Reference value :  1.27554e-05
 Reference value :  1.27569e-05
 Reference value :  1.27634e-05
 Reference value :  1.28237e-05
 Reference value :  1.30000e-05
 Reference value :  1.30001e-05
 Reference value :  1.30001e-05
 Reference value :  1.30003e-05
 Reference value :  1.30014e-05
 Reference value :  1.30024e-05
 Reference value :  1.30035e-05
 Reference value :  1.30047e-05
 Reference value :  1.30061e-05
 Reference value :  1.30086e-05
 Reference value :  1.30106e-05
 Reference value :  1.30158e-05
 Reference value :  1.30361e-05
 Reference value :  1.31608e-05
 Reference value :  1.32501e-05
 Reference value :  1.32502e-05
 Reference value :  1.32503e-05
 Reference value :  1.32508e-05
 Reference value :  1.32515e-05
 Reference value :  1.32524e-05
 Reference value :  1.32537e-05
 Reference value :  1.32543e-05
 Reference value :  1.32554e-05
 Reference value :  1.32569e-05
 Reference value :  1.32636e-05
 Reference value :  1.33232e-05
 Reference value :  1.35000e-05
 Reference value :  1.35001e-05
 Reference value :  1.35001e-05
 Reference value :  1.35003e-05
 Reference value :  1.35014e-05
 Reference value :  1.35024e-05
 Reference value :  1.35035e-05
 Reference value :  1.35052e-05
 Reference value :  1.35065e-05
 Reference value :  1.35107e-05
 Reference value :  1.35122e-05
 Reference value :  1.35150e-05
 Reference value :  1.35176e-05
 Reference value :  1.35222e-05
 Reference value :  1.35337e-05
 Reference value :  1.35513e-05
 Reference value :  1.35708e-05
 Reference value :  1.35819e-05
 Reference value :  1.36026e-05
 Reference value :  1.36217e-05
 Reference value :  1.36678e-05
 Reference value :  1.37501e-05
 Reference value :  1.37502e-05
 Reference value :  1.37502e-05
 Reference value :  1.37503e-05
 Reference value :  1.37508e-05
 Reference value :  1.37515e-05
 Reference value :  1.37531e-05
 Reference value :  1.37543e-05
 Reference value :  1.37554e-05
 Reference value :  1.37571e-05
 Reference value :  1.37640e-05
 Reference value :  1.37893e-05
 Reference value :  1.37988e-05
 Reference value :  1.38380e-05
 Reference value :  1.39169e-05
 Reference value :  1.40000e-05
 Reference value :  1.40001e-05
 Reference value :  1.40002e-05
 Reference value :  1.40006e-05
 Reference value :  1.40018e-05
 Reference value :  1.40029e-05
 Reference value :  1.40041e-05
 Reference value :  1.40055e-05
 Reference value :  1.40061e-05
 Reference value :  1.40086e-05
 Reference value :  1.40106e-05
 Reference value :  1.40160e-05
 Reference value :  1.40260e-05
 Reference value :  1.40933e-05
 Reference value :  1.42501e-05
 Reference value :  1.42502e-05
 Reference value :  1.42503e-05
 Reference value :  1.42506e-05
 Reference value :  1.42515e-05
 Reference value :  1.42524e-05
 Reference value :  1.42537e-05
 Reference value :  1.42548e-05
 Reference value :  1.42562e-05
 Reference value :  1.42584e-05
 Reference value :  1.42680e-05
 Reference value :  1.43225e-05
 Reference value :  1.45000e-05
 Reference value :  1.45001e-05
 Reference value :  1.45001e-05
 Reference value :  1.45003e-05
 Reference value :  1.45014e-05
 Reference value :  1.45024e-05
 Reference value :  1.45035e-05
 Reference value :  1.45047e-05
 Reference value :  1.45057e-05
 Reference value :  1.45073e-05
 Reference value :  1.45107e-05
 Reference value :  1.45121e-05
 Reference value :  1.45149e-05
 Reference value :  1.45173e-05
 Reference value :  1.45198e-05
 Reference value :  1.45236e-05
 Reference value :  1.45388e-05
 Reference value :  1.45477e-05
 Reference value :  1.45602e-05
 Reference value :  1.45814e-05
 Reference value :  1.46430e-05
 Reference value :  1.47501e-05
 Reference value :  1.47502e-05
 Reference value :  1.47502e-05
 Reference value :  1.47504e-05
 Reference value :  1.47511e-05
 Reference value :  1.47520e-05
 Reference value :  1.47531e-05
 Reference value :  1.47543e-05
 Reference value :  1.47554e-05
 Reference value :  1.47571e-05
 Reference value :  1.47639e-05
 Reference value :  1.47965e-05
 Reference value :  1.50000e-05
 Reference value :  1.50001e-05
 Reference value :  1.50001e-05
 Reference value :  1.50002e-05
 Reference value :  1.50010e-05
 Reference value :  1.50024e-05
 Reference value :  1.50035e-05
 Reference value :  1.50047e-05
 Reference value :  1.50060e-05
 Reference value :  1.50077e-05
 Reference value :  1.50097e-05
 Reference value :  1.50120e-05
 Reference value :  1.50199e-05
 Reference value :  1.50574e-05
 Reference value :  1.52501e-05
 Reference value :  1.52502e-05
 Reference value :  1.52502e-05
 Reference value :  1.52504e-05
 Reference value :  1.52511e-05
 Reference value :  1.52520e-05
 Reference value :  1.52531e-05
 Reference value :  1.52543e-05
 Reference value :  1.52554e-05
 Reference value :  1.52562e-05
 Reference value :  1.52587e-05
 Reference value :  1.52634e-05
 Reference value :  1.52782e-05
 Reference value :  1.53740e-05
 Reference value :  1.55010e-05
 Reference value :  1.55030e-05
 Reference value :  1.55041e-05
 Reference value :  1.55059e-05
 Reference value :  1.55085e-05
 Reference value :  1.55108e-05
 Reference value :  1.55130e-05
 Reference value :  1.55151e-05
 Reference value :  1.55170e-05
 Reference value :  1.55191e-05
 Reference value :  1.55244e-05
 Reference value :  1.55412e-05
 Reference value :  1.56166e-05
 Reference value :  1.57501e-05
 Reference value :  1.57502e-05
 Reference value :  1.57503e-05
 Reference value :  1.57506e-05
 Reference value :  1.57514e-05
 Reference value :  1.57522e-05
 Reference value :  1.57533e-05
 Reference value :  1.57538e-05
 Reference value :  1.57550e-05
 Reference value :  1.57577e-05
 Reference value :  1.57656e-05
 Reference value :  1.57869e-05
 Reference value :  1.59782e-05
 Reference value :  1.60000e-05
 Reference value :  1.60001e-05
 Reference value :  1.60002e-05
 Reference value :  1.60010e-05
 Reference value :  1.60019e-05
 Reference value :  1.60029e-05
 Reference value :  1.60041e-05
 Reference value :  1.60055e-05
 Reference value :  1.60060e-05
 Reference value :  1.60086e-05
 Reference value :  1.60106e-05
 Reference value :  1.60161e-05
 Reference value :  1.60374e-05
 Reference value :  1.61739e-05
 Reference value :  1.62501e-05
 Reference value :  1.62502e-05
 Reference value :  1.62503e-05
 Reference value :  1.62508e-05
 Reference value :  1.62515e-05
 Reference value :  1.62524e-05
 Reference value :  1.62537e-05
 Reference value :  1.62543e-05
 Reference value :  1.62562e-05
 Reference value :  1.62577e-05
 Reference value :  1.62618e-05
 Reference value :  1.62722e-05
 Reference value :  1.63107e-05
 Reference value :  1.64624e-05
 Reference value :  1.65000e-05
 Reference value :  1.65001e-05
 Reference value :  1.65002e-05
 Reference value :  1.65010e-05
 Reference value :  1.65024e-05
 Reference value :  1.65035e-05
 Reference value :  1.65047e-05
 Reference value :  1.65059e-05
 Reference value :  1.65074e-05
 Reference value :  1.65090e-05
 Reference value :  1.65105e-05
 Reference value :  1.65127e-05
 Reference value :  1.65168e-05
 Reference value :  1.65244e-05
 Reference value :  1.65515e-05
 Reference value :  1.65610e-05
 Reference value :  1.65675e-05
 Reference value :  1.65829e-05
 Reference value :  1.66250e-05
 Reference value :  1.67464e-05
 Reference value :  1.67501e-05
 Reference value :  1.67502e-05
 Reference value :  1.67503e-05
 Reference value :  1.67508e-05
 Reference value :  1.67516e-05
 Reference value :  1.67525e-05
 Reference value :  1.67539e-05
 Reference value :  1.67558e-05
 Reference value :  1.67585e-05
 Reference value :  1.67670e-05
 Reference value :  1.68816e-05
 Reference value :  1.70021e-05
 Reference value :  1.70085e-05
 Reference value :  1.70131e-05
 Reference value :  1.70188e-05
 Reference value :  1.70276e-05
 Reference value :  1.70307e-05
 Reference value :  1.70357e-05
 Reference value :  1.70396e-05
 Reference value :  1.70427e-05
 Reference value :  1.70475e-05
 Reference value :  1.70575e-05
 Reference value :  1.70741e-05
 Reference value :  1.71133e-05
 Reference value :  1.71974e-05
 Reference value :  1.72123e-05
 Reference value :  1.72376e-05
 Reference value :  1.72501e-05
 Reference value :  1.72502e-05
 Reference value :  1.72502e-05
 Reference value :  1.72504e-05
 Reference value :  1.72514e-05
 Reference value :  1.72522e-05
 Reference value :  1.72533e-05
 Reference value :  1.72537e-05
 Reference value :  1.72548e-05
 Reference value :  1.72561e-05
 Reference value :  1.72614e-05
 Reference value :  1.72811e-05
 Reference value :  1.74381e-05
 Reference value :  1.75000e-05
 Reference value :  1.75001e-05
 Reference value :  1.75002e-05
 Reference value :  1.75009e-05
 Reference value :  1.75016e-05
 Reference value :  1.75025e-05
 Reference value :  1.75036e-05
 Reference value :  1.75056e-05
 Reference value :  1.75083e-05
 Reference value :  1.75106e-05
 Reference value :  1.75120e-05
 Reference value :  1.75147e-05
 Reference value :  1.75187e-05
 Reference value :  1.75376e-05
 Reference value :  1.76381e-05
 Reference value :  1.77501e-05
 Reference value :  1.77502e-05
 Reference value :  1.77503e-05
 Reference value :  1.77506e-05
 Reference value :  1.77518e-05
 Reference value :  1.77535e-05
 Reference value :  1.77546e-05
 Reference value :  1.77559e-05
 Reference value :  1.77574e-05
 Reference value :  1.77591e-05
 Reference value :  1.77655e-05
 Reference value :  1.77853e-05
 Reference value :  1.78778e-05
 Reference value :  1.80003e-05
 Reference value :  1.80012e-05
 Reference value :  1.80019e-05
 Reference value :  1.80029e-05
 Reference value :  1.80040e-05
 Reference value :  1.80050e-05
 Reference value :  1.80062e-05
 Reference value :  1.80079e-05
 Reference value :  1.80100e-05
 Reference value :  1.80119e-05
 Reference value :  1.80137e-05
 Reference value :  1.80153e-05
 Reference value :  1.80181e-05
 Reference value :  1.80228e-05
 Reference value :  1.80442e-05
 Reference value :  1.81742e-05
 Reference value :  1.82501e-05
 Reference value :  1.82502e-05
 Reference value :  1.82502e-05
 Reference value :  1.82504e-05
 Reference value :  1.82514e-05
 Reference value :  1.82522e-05
 Reference value :  1.82535e-05
 Reference value :  1.82546e-05
 Reference value :  1.82558e-05
 Reference value :  1.82599e-05
 Reference value :  1.82736e-05
 Reference value :  1.83676e-05
 Reference value :  1.85000e-05
 Reference value :  1.85001e-05
 Reference value :  1.85002e-05
 Reference value :  1.85005e-05
 Reference value :  1.85016e-05
 Reference value :  1.85025e-05
 Reference value :  1.85036e-05
 Reference value :  1.85049e-05
 Reference value :  1.85062e-05
 Reference value :  1.85079e-05
 Reference value :  1.85099e-05
 Reference value :  1.85123e-05
 Reference value :  1.85257e-05
 Reference value :  1.86078e-05
 Reference value :  1.87501e-05
 Reference value :  1.87502e-05
 Reference value :  1.87502e-05
 Reference value :  1.87503e-05
 Reference value :  1.87509e-05
 Reference value :  1.87518e-05
 Reference value :  1.87528e-05
 Reference value :  1.87540e-05
 Reference value :  1.87559e-05
 Reference value :  1.87575e-05
 Reference value :  1.87617e-05
 Reference value :  1.87725e-05
 Reference value :  1.88156e-05
 Reference value :  1.89977e-05
 Reference value :  1.90000e-05
 Reference value :  1.90001e-05
 Reference value :  1.90002e-05
 Reference value :  1.90009e-05
 Reference value :  1.90016e-05
 Reference value :  1.90026e-05
 Reference value :  1.90037e-05
 Reference value :  1.90047e-05
 Reference value :  1.90052e-05
 Reference value :  1.90065e-05
 Reference value :  1.90082e-05
 Reference value :  1.90102e-05
 Reference value :  1.90122e-05
 Reference value :  1.90139e-05
 Reference value :  1.90158e-05
 Reference value :  1.90178e-05
 Reference value :  1.90203e-05
 Reference value :  1.90300e-05
 Reference value :  1.90687e-05
 Reference value :  1.91308e-05
 Reference value :  1.91864e-05
 Reference value :  1.92045e-05
 Reference value :  1.92220e-05
 Reference value :  1.92501e-05
 Reference value :  1.92502e-05
 Reference value :  1.92502e-05
 Reference value :  1.92504e-05
 Reference value :  1.92514e-05
 Reference value :  1.92522e-05
 Reference value :  1.92535e-05
 Reference value :  1.92546e-05
 Reference value :  1.92559e-05
 Reference value :  1.92600e-05
 Reference value :  1.92739e-05
 Reference value :  1.93685e-05
 Reference value :  1.95006e-05
 Reference value :  1.95026e-05
 Reference value :  1.95038e-05
 Reference value :  1.95052e-05
 Reference value :  1.95067e-05
 Reference value :  1.95083e-05
 Reference value :  1.95116e-05
 Reference value :  1.95214e-05
 Reference value :  1.95840e-05
 Reference value :  1.97501e-05
 Reference value :  1.97502e-05
 Reference value :  1.97502e-05
 Reference value :  1.97503e-05
 Reference value :  1.97506e-05
 Reference value :  1.97518e-05
 Reference value :  1.97535e-05
 Reference value :  1.97546e-05
 Reference value :  1.97559e-05
 Reference value :  1.97601e-05
 Reference value :  1.97893e-05
 Reference value :  1.99825e-05
 Reference value :  2.00000e-05
 Reference value :  2.00001e-05
 Reference value :  2.00002e-05
 Reference value :  2.00009e-05
 Reference value :  2.00016e-05
 Reference value :  2.00031e-05
 Reference value :  2.00042e-05
 Reference value :  2.00053e-05
 Reference value :  2.00076e-05
 Reference value :  2.00112e-05
 Reference value :  2.00128e-05
 Reference value :  2.00141e-05
 Reference value :  2.00166e-05
 Reference value :  2.00206e-05
 Reference value :  2.00300e-05
 Reference value :  2.00466e-05
 Reference value :  2.00557e-05
 Reference value :  2.00637e-05
 Reference value :  2.00698e-05
 Reference value :  2.00818e-05
 Reference value :  2.01050e-05
 Reference value :  2.01467e-05
 Reference value :  2.02501e-05
 Reference value :  2.02502e-05
 Reference value :  2.02502e-05
 Reference value :  2.02504e-05
 Reference value :  2.02514e-05
 Reference value :  2.02522e-05
 Reference value :  2.02535e-05
 Reference value :  2.02545e-05
 Reference value :  2.02558e-05
 Reference value :  2.02597e-05
 Reference value :  2.02730e-05
 Reference value :  2.03663e-05
 Reference value :  2.05005e-05
 Reference value :  2.05019e-05
 Reference value :  2.05030e-05
 Reference value :  2.05042e-05
 Reference value :  2.05057e-05
 Reference value :  2.05064e-05
 Reference value :  2.05081e-05
 Reference value :  2.05111e-05
 Reference value :  2.05183e-05
 Reference value :  2.05509e-05
 Reference value :  2.07128e-05
 Reference value :  2.07501e-05
 Reference value :  2.07502e-05
 Reference value :  2.07503e-05
 Reference value :  2.07509e-05
 Reference value :  2.07518e-05
 Reference value :  2.07535e-05
 Reference value :  2.07546e-05
 Reference value :  2.07559e-05
 Reference value :  2.07575e-05
 Reference value :  2.07617e-05
 Reference value :  2.07723e-05
 Reference value :  2.08140e-05
 Reference value :  2.09860e-05
 Reference value :  2.10000e-05
 Reference value :  2.10001e-05
 Reference value :  2.10002e-05
 Reference value :  2.10009e-05
 Reference value :  2.10016e-05
 Reference value :  2.10026e-05
 Reference value :  2.10037e-05
 Reference value :  2.10047e-05
 Reference value :  2.10052e-05
 Reference value :  2.10065e-05
 Reference value :  2.10082e-05
 Reference value :  2.10102e-05
 Reference value :  2.10124e-05
 Reference value :  2.10147e-05
 Reference value :  2.10167e-05
 Reference value :  2.10202e-05
 Reference value :  2.10297e-05
 Reference value :  2.10426e-05
 Reference value :  2.10491e-05
 Reference value :  2.10576e-05
 Reference value :  2.10645e-05
 Reference value :  2.10862e-05
 Reference value :  2.11036e-05
 Reference value :  2.11565e-05
 Reference value :  2.12501e-05
 Reference value :  2.12502e-05
 Reference value :  2.12503e-05
 Reference value :  2.12506e-05
 Reference value :  2.12515e-05
 Reference value :  2.12531e-05
 Reference value :  2.12543e-05
 Reference value :  2.12554e-05
 Reference value :  2.12569e-05
 Reference value :  2.12634e-05
 Reference value :  2.12933e-05
 Reference value :  2.14951e-05
 Reference value :  2.15000e-05
 Reference value :  2.15001e-05
 Reference value :  2.15002e-05
 Reference value :  2.15010e-05
 Reference value :  2.15018e-05
 Reference value :  2.15029e-05
 Reference value :  2.15041e-05
 Reference value :  2.15055e-05
 Reference value :  2.15061e-05
 Reference value :  2.15077e-05
 Reference value :  2.15096e-05
 Reference value :  2.15119e-05
 Reference value :  2.15195e-05
 Reference value :  2.15539e-05
 Reference value :  2.17501e-05
 Reference value :  2.17502e-05
 Reference value :  2.17502e-05
 Reference value :  2.17504e-05
 Reference value :  2.17511e-05
 Reference value :  2.17520e-05
 Reference value :  2.17531e-05
 Reference value :  2.17543e-05
 Reference value :  2.17554e-05
 Reference value :  2.17562e-05
 Reference value :  2.17607e-05
 Reference value :  2.17771e-05
 Reference value :  2.18799e-05
 Reference value :  2.20002e-05
 Reference value :  2.20008e-05
 Reference value :  2.20019e-05
 Reference value :  2.20029e-05
 Reference value :  2.20041e-05
 Reference value :  2.20053e-05
 Reference value :  2.20067e-05
 Reference value :  2.20111e-05
 Reference value :  2.20126e-05
 Reference value :  2.20152e-05
 Reference value :  2.20178e-05
 Reference value :  2.20204e-05
 Reference value :  2.20247e-05
 Reference value :  2.20449e-05
 Reference value :  2.20712e-05
 Reference value :  2.21550e-05
 Reference value :  2.22501e-05
 Reference value :  2.22502e-05
 Reference value :  2.22503e-05
 Reference value :  2.22506e-05
 Reference value :  2.22515e-05
 Reference value :  2.22531e-05
 Reference value :  2.22543e-05
 Reference value :  2.22555e-05
 Reference value :  2.22570e-05
 Reference value :  2.22637e-05
 Reference value :  2.22955e-05
 Reference value :  2.25000e-05
 Reference value :  2.25001e-05
 Reference value :  2.25001e-05
 Reference value :  2.25003e-05
 Reference value :  2.25014e-05
 Reference value :  2.25024e-05
 Reference value :  2.25035e-05
 Reference value :  2.25047e-05
 Reference value :  2.25061e-05
 Reference value :  2.25086e-05
 Reference value :  2.25119e-05
 Reference value :  2.25195e-05
 Reference value :  2.25544e-05
 Reference value :  2.27501e-05
 Reference value :  2.27502e-05
 Reference value :  2.27502e-05
 Reference value :  2.27504e-05
 Reference value :  2.27511e-05
 Reference value :  2.27520e-05
 Reference value :  2.27531e-05
 Reference value :  2.27543e-05
 Reference value :  2.27562e-05
 Reference value :  2.27584e-05
 Reference value :  2.27680e-05
 Reference value :  2.28226e-05
 Reference value :  2.30000e-05
 Reference value :  2.30003e-05
 Reference value :  2.30013e-05
 Reference value :  2.30020e-05
 Reference value :  2.30029e-05
 Reference value :  2.30040e-05
 Reference value :  2.30052e-05
 Reference value :  2.30065e-05
 Reference value :  2.30107e-05
 Reference value :  2.30122e-05
 Reference value :  2.30138e-05
 Reference value :  2.30151e-05
 Reference value :  2.30179e-05
 Reference value :  2.30232e-05
 Reference value :  2.30380e-05
 Reference value :  2.30749e-05
 Reference value :  2.31066e-05
 Reference value :  2.31286e-05
 Reference value :  2.31853e-05
 Reference value :  2.32501e-05
 Reference value :  2.32502e-05
 Reference value :  2.32502e-05
 Reference value :  2.32504e-05
 Reference value :  2.32510e-05
 Reference value :  2.32520e-05
 Reference value :  2.32531e-05
 Reference value :  2.32543e-05
 Reference value :  2.32554e-05
 Reference value :  2.32571e-05
 Reference value :  2.32640e-05
 Reference value :  2.32970e-05
 Reference value :  2.35000e-05
 Reference value :  2.35001e-05
 Reference value :  2.35001e-05
 Reference value :  2.35003e-05
 Reference value :  2.35010e-05
 Reference value :  2.35024e-05
 Reference value :  2.35035e-05
 Reference value :  2.35054e-05
 Reference value :  2.35060e-05
 Reference value :  2.35077e-05
 Reference value :  2.35097e-05
 Reference value :  2.35120e-05
 Reference value :  2.35199e-05
 Reference value :  2.35574e-05
 Reference value :  2.37501e-05
 Reference value :  2.37502e-05
 Reference value :  2.37502e-05
 Reference value :  2.37504e-05
 Reference value :  2.37511e-05
 Reference value :  2.37515e-05
 Reference value :  2.37524e-05
 Reference value :  2.37537e-05
 Reference value :  2.37548e-05
 Reference value :  2.37562e-05
 Reference value :  2.37586e-05
 Reference value :  2.37632e-05
 Reference value :  2.37774e-05
 Reference value :  2.38284e-05
 Reference value :  2.40000e-05
 Reference value :  2.40001e-05
 Reference value :  2.40001e-05
 Reference value :  2.40002e-05
 Reference value :  2.40010e-05
 Reference value :  2.40018e-05
 Reference value :  2.40029e-05
 Reference value :  2.40041e-05
 Reference value :  2.40047e-05
 Reference value :  2.40059e-05
 Reference value :  2.40074e-05
 Reference value :  2.40095e-05
 Reference value :  2.40117e-05
 Reference value :  2.40129e-05
 Reference value :  2.40137e-05
 Reference value :  2.40155e-05
 Reference value :  2.40174e-05
 Reference value :  2.40195e-05
 Reference value :  2.40274e-05
 Reference value :  2.40510e-05
 Reference value :  2.40793e-05
 Reference value :  2.41044e-05
 Reference value :  2.41336e-05
 Reference value :  2.42501e-05
 Reference value :  2.42502e-05
 Reference value :  2.42502e-05
 Reference value :  2.42504e-05
 Reference value :  2.42508e-05
 Reference value :  2.42515e-05
 Reference value :  2.42524e-05
 Reference value :  2.42538e-05
 Reference value :  2.42549e-05
 Reference value :  2.42562e-05
 Reference value :  2.42608e-05
 Reference value :  2.42782e-05
 Reference value :  2.43976e-05
 Reference value :  2.45000e-05
 Reference value :  2.45001e-05
 Reference value :  2.45002e-05
 Reference value :  2.45010e-05
 Reference value :  2.45024e-05
 Reference value :  2.45035e-05
 Reference value :  2.45047e-05
 Reference value :  2.45061e-05
 Reference value :  2.45077e-05
 Reference value :  2.45096e-05
 Reference value :  2.45119e-05
 Reference value :  2.45194e-05
 Reference value :  2.45537e-05
 Reference value :  2.47501e-05
 Reference value :  2.47502e-05
 Reference value :  2.47502e-05
 Reference value :  2.47504e-05
 Reference value :  2.47511e-05
 Reference value :  2.47520e-05
 Reference value :  2.47531e-05
 Reference value :  2.47543e-05
 Reference value :  2.47554e-05
 Reference value :  2.47569e-05
 Reference value :  2.47635e-05
 Reference value :  2.47931e-05
 Reference value :  2.49845e-05
 Reference value :  2.50000e-05
 Reference value :  2.50001e-05
 Reference value :  2.50002e-05
 Reference value :  2.50010e-05
 Reference value :  2.50024e-05
 Reference value :  2.50035e-05
 Reference value :  2.50052e-05
 Reference value :  2.50065e-05
 Reference value :  2.50081e-05
 Reference value :  2.50099e-05
 Reference value :  2.50173e-05
 Reference value :  2.50683e-05
 Reference value :  2.52501e-05
 Reference value :  2.52502e-05
 Reference value :  2.52502e-05
 Reference value :  2.52503e-05
 Reference value :  2.52504e-05
 Reference value :  2.52508e-05
 Reference value :  2.52516e-05
 Reference value :  2.52525e-05
 Reference value :  2.52539e-05
 Reference value :  2.52558e-05
 Reference value :  2.52585e-05
 Reference value :  2.52670e-05
 Reference value :  2.53204e-05
 Reference value :  2.55021e-05
 Reference value :  2.55085e-05
 Reference value :  2.55131e-05
 Reference value :  2.55232e-05
 Reference value :  2.55276e-05
 Reference value :  2.55308e-05
 Reference value :  2.55337e-05
 Reference value :  2.55359e-05
 Reference value :  2.55388e-05
 Reference value :  2.55424e-05
 Reference value :  2.55505e-05
 Reference value :  2.55602e-05
 Reference value :  2.55798e-05
 Reference value :  2.56207e-05
 Reference value :  2.56741e-05
 Reference value :  2.57035e-05
 Reference value :  2.57189e-05
 Reference value :  2.57478e-05
 Reference value :  2.57501e-05
 Reference value :  2.57502e-05
 Reference value :  2.57503e-05
 Reference value :  2.57509e-05
 Reference value :  2.57518e-05
 Reference value :  2.57528e-05
 Reference value :  2.57538e-05
 Reference value :  2.57548e-05
 Reference value :  2.57561e-05
 Reference value :  2.57614e-05
 Reference value :  2.57808e-05
 Reference value :  2.59367e-05
 Reference value :  2.60000e-05
 Reference value :  2.60001e-05
 Reference value :  2.60002e-05
 Reference value :  2.60009e-05
 Reference value :  2.60016e-05
 Reference value :  2.60030e-05
 Reference value :  2.60041e-05
 Reference value :  2.60069e-05
 Reference value :  2.60094e-05
 Reference value :  2.60120e-05
 Reference value :  2.60147e-05
 Reference value :  2.60187e-05
 Reference value :  2.60377e-05
 Reference value :  2.61407e-05
 Reference value :  2.62501e-05
 Reference value :  2.62502e-05
 Reference value :  2.62503e-05
 Reference value :  2.62509e-05
 Reference value :  2.62518e-05
 Reference value :  2.62535e-05
 Reference value :  2.62540e-05
 Reference value :  2.62546e-05
 Reference value :  2.62559e-05
 Reference value :  2.62574e-05
 Reference value :  2.62591e-05
 Reference value :  2.62655e-05
 Reference value :  2.62853e-05
 Reference value :  2.63786e-05
 Reference value :  2.65003e-05
 Reference value :  2.65011e-05
 Reference value :  2.65018e-05
 Reference value :  2.65027e-05
 Reference value :  2.65038e-05
 Reference value :  2.65049e-05
 Reference value :  2.65069e-05
 Reference value :  2.65080e-05
 Reference value :  2.65100e-05
 Reference value :  2.65120e-05
 Reference value :  2.65138e-05
 Reference value :  2.65154e-05
 Reference value :  2.65171e-05
 Reference value :  2.65191e-05
 Reference value :  2.65265e-05
 Reference value :  2.65669e-05
 Reference value :  2.67462e-05
 Reference value :  2.67501e-05
 Reference value :  2.67502e-05
 Reference value :  2.67503e-05
 Reference value :  2.67509e-05
 Reference value :  2.67518e-05
 Reference value :  2.67528e-05
 Reference value :  2.67540e-05
 Reference value :  2.67551e-05
 Reference value :  2.67566e-05
 Reference value :  2.67626e-05
 Reference value :  2.67883e-05
 Reference value :  2.69739e-05
 Reference value :  2.70000e-05
 Reference value :  2.70001e-05
 Reference value :  2.70002e-05
 Reference value :  2.70005e-05
 Reference value :  2.70012e-05
 Reference value :  2.70020e-05
 Reference value :  2.70030e-05
 Reference value :  2.70041e-05
 Reference value :  2.70056e-05
 Reference value :  2.70063e-05
 Reference value :  2.70080e-05
 Reference value :  2.70099e-05
 Reference value :  2.70123e-05
 Reference value :  2.70257e-05
 Reference value :  2.71068e-05
 Reference value :  2.72501e-05
 Reference value :  2.72502e-05
 Reference value :  2.72503e-05
 Reference value :  2.72506e-05
 Reference value :  2.72518e-05
 Reference value :  2.72528e-05
 Reference value :  2.72540e-05
 Reference value :  2.72552e-05
 Reference value :  2.72567e-05
 Reference value :  2.72586e-05
 Reference value :  2.72636e-05
 Reference value :  2.72804e-05
 Reference value :  2.73506e-05
 Reference value :  2.75000e-05
 Reference value :  2.75001e-05
 Reference value :  2.75001e-05
 Reference value :  2.75003e-05
 Reference value :  2.75012e-05
 Reference value :  2.75016e-05
 Reference value :  2.75026e-05
 Reference value :  2.75037e-05
 Reference value :  2.75047e-05
 Reference value :  2.75052e-05
 Reference value :  2.75065e-05
 Reference value :  2.75082e-05
 Reference value :  2.75102e-05
 Reference value :  2.75122e-05
 Reference value :  2.75139e-05
 Reference value :  2.75158e-05
 Reference value :  2.75178e-05
 Reference value :  2.75203e-05
 Reference value :  2.75300e-05
 Reference value :  2.75688e-05
 Reference value :  2.76312e-05
 Reference value :  2.76908e-05
 Reference value :  2.77091e-05
 Reference value :  2.77422e-05
 Reference value :  2.77501e-05
 Reference value :  2.77502e-05
 Reference value :  2.77503e-05
 Reference value :  2.77509e-05
 Reference value :  2.77518e-05
 Reference value :  2.77528e-05
 Reference value :  2.77540e-05
 Reference value :  2.77558e-05
 Reference value :  2.77599e-05
 Reference value :  2.77739e-05
 Reference value :  2.78685e-05
 Reference value :  2.80006e-05
 Reference value :  2.80026e-05
 Reference value :  2.80038e-05
 Reference value :  2.80052e-05
 Reference value :  2.80068e-05
 Reference value :  2.80084e-05
 Reference value :  2.80103e-05
 Reference value :  2.80168e-05
 Reference value :  2.80543e-05
 Reference value :  2.80952e-05
 Reference value :  2.82501e-05
 Reference value :  2.82502e-05
 Reference value :  2.82503e-05
 Reference value :  2.82506e-05
 Reference value :  2.82518e-05
 Reference value :  2.82528e-05
 Reference value :  2.82540e-05
 Reference value :  2.82552e-05
 Reference value :  2.82580e-05
 Reference value :  2.82668e-05
 Reference value :  2.83169e-05
 Reference value :  2.85000e-05
 Reference value :  2.85001e-05
 Reference value :  2.85001e-05
 Reference value :  2.85003e-05
 Reference value :  2.85009e-05
 Reference value :  2.85016e-05
 Reference value :  2.85026e-05
 Reference value :  2.85037e-05
 Reference value :  2.85048e-05
 Reference value :  2.85053e-05
 Reference value :  2.85076e-05
 Reference value :  2.85112e-05
 Reference value :  2.85128e-05
 Reference value :  2.85141e-05
 Reference value :  2.85166e-05
 Reference value :  2.85206e-05
 Reference value :  2.85300e-05
 Reference value :  2.85481e-05
 Reference value :  2.85604e-05
 Reference value :  2.85696e-05
 Reference value :  2.85842e-05
 Reference value :  2.85988e-05
 Reference value :  2.86229e-05
 Reference value :  2.86820e-05
 Reference value :  2.87501e-05
 Reference value :  2.87502e-05
 Reference value :  2.87503e-05
 Reference value :  2.87506e-05
 Reference value :  2.87514e-05
 Reference value :  2.87522e-05
 Reference value :  2.87535e-05
 Reference value :  2.87545e-05
 Reference value :  2.87558e-05
 Reference value :  2.87597e-05
 Reference value :  2.87870e-05
 Reference value :  2.89721e-05
 Reference value :  2.90005e-05
 Reference value :  2.90019e-05
 Reference value :  2.90030e-05
 Reference value :  2.90042e-05
 Reference value :  2.90057e-05
 Reference value :  2.90064e-05
 Reference value :  2.90081e-05
 Reference value :  2.90111e-05
 Reference value :  2.90184e-05
 Reference value :  2.90510e-05
 Reference value :  2.92135e-05
 Reference value :  2.92501e-05
 Reference value :  2.92502e-05
 Reference value :  2.92503e-05
 Reference value :  2.92509e-05
 Reference value :  2.92518e-05
 Reference value :  2.92528e-05
 Reference value :  2.92540e-05
 Reference value :  2.92552e-05
 Reference value :  2.92567e-05
 Reference value :  2.92586e-05
 Reference value :  2.92635e-05
 Reference value :  2.92937e-05
 Reference value :  2.94010e-05
 Reference value :  2.95000e-05
 Reference value :  2.95001e-05
 Reference value :  2.95002e-05
 Reference value :  2.95005e-05
 Reference value :  2.95016e-05
 Reference value :  2.95026e-05
 Reference value :  2.95037e-05
 Reference value :  2.95047e-05
 Reference value :  2.95052e-05
 Reference value :  2.95065e-05
 Reference value :  2.95082e-05
 Reference value :  2.95102e-05
 Reference value :  2.95124e-05
 Reference value :  2.95147e-05
 Reference value :  2.95167e-05
 Reference value :  2.95202e-05
 Reference value :  2.95248e-05
 Reference value :  2.95404e-05
 Reference value :  2.95444e-05
 Reference value :  2.95516e-05
 Reference value :  2.95683e-05
 Reference value :  2.95927e-05
 Reference value :  2.96353e-05
 Reference value :  2.97501e-05
 Reference value :  2.97502e-05
 Reference value :  2.97502e-05
 Reference value :  2.97504e-05
 Reference value :  2.97511e-05
 Reference value :  2.97520e-05
 Reference value :  2.97531e-05
 Reference value :  2.97543e-05
 Reference value :  2.97561e-05
 Reference value :  2.97606e-05
 Reference value :  2.97933e-05
 Reference value :  2.99955e-05
 Reference value :  3.00000e-05
 Reference value :  3.00001e-05
 Reference value :  3.00002e-05
 Reference value :  3.00006e-05
 Reference value :  3.00018e-05
 Reference value :  3.00029e-05
 Reference value :  3.00041e-05
 Reference value :  3.00055e-05
 Reference value :  3.00061e-05
 Reference value :  3.00077e-05
 Reference value :  3.00096e-05
 Reference value :  3.00119e-05
 Reference value :  3.00195e-05
 Reference value :  3.00539e-05
 Reference value :  3.02501e-05
 Reference value :  3.02502e-05
 Reference value :  3.02502e-05
 Reference value :  3.02504e-05
 Reference value :  3.02511e-05
 Reference value :  3.02520e-05
 Reference value :  3.02531e-05
 Reference value :  3.02537e-05
 Reference value :  3.02543e-05
 Reference value :  3.02562e-05
 Reference value :  3.02607e-05
 Reference value :  3.02771e-05
 Reference value :  3.03799e-05
 Reference value :  3.05002e-05
 Reference value :  3.05008e-05
 Reference value :  3.05018e-05
 Reference value :  3.05030e-05
 Reference value :  3.05041e-05
 Reference value :  3.05053e-05
 Reference value :  3.05069e-05
 Reference value :  3.05113e-05
 Reference value :  3.05128e-05
 Reference value :  3.05141e-05
 Reference value :  3.05165e-05
 Reference value :  3.05190e-05
 Reference value :  3.05222e-05
 Reference value :  3.05338e-05
 Reference value :  3.05571e-05
 Reference value :  3.06234e-05
 Reference value :  3.07501e-05
 Reference value :  3.07502e-05
 Reference value :  3.07502e-05
 Reference value :  3.07504e-05
 Reference value :  3.07511e-05
 Reference value :  3.07520e-05
 Reference value :  3.07531e-05
 Reference value :  3.07543e-05
 Reference value :  3.07555e-05
 Reference value :  3.07570e-05
 Reference value :  3.07637e-05
 Reference value :  3.07959e-05
 Reference value :  3.10000e-05
 Reference value :  3.10001e-05
 Reference value :  3.10001e-05
 Reference value :  3.10003e-05
 Reference value :  3.10014e-05
 Reference value :  3.10024e-05
 Reference value :  3.10035e-05
 Reference value :  3.10047e-05
 Reference value :  3.10061e-05
 Reference value :  3.10077e-05
 Reference value :  3.10096e-05
 Reference value :  3.10119e-05
 Reference value :  3.10195e-05
 Reference value :  3.10544e-05
 Reference value :  3.12501e-05
 Reference value :  3.12501e-05
 Reference value :  3.12502e-05
 Reference value :  3.12503e-05
 Reference value :  3.12508e-05
 Reference value :  3.12515e-05
 Reference value :  3.12524e-05
 Reference value :  3.12537e-05
 Reference value :  3.12549e-05
 Reference value :  3.12562e-05
 Reference value :  3.12606e-05
 Reference value :  3.12769e-05
 Reference value :  3.13227e-05
 Reference value :  3.14850e-05
 Reference value :  3.15000e-05
 Reference value :  3.15001e-05
 Reference value :  3.15001e-05
 Reference value :  3.15002e-05
 Reference value :  3.15003e-05
 Reference value :  3.15006e-05
 Reference value :  3.15014e-05
 Reference value :  3.15018e-05
 Reference value :  3.15024e-05
 Reference value :  3.15035e-05
 Reference value :  3.15047e-05
 Reference value :  3.15052e-05
 Reference value :  3.15058e-05
 Reference value :  3.15065e-05
 Reference value :  3.15088e-05
 Reference value :  3.15107e-05
 Reference value :  3.15121e-05
 Reference value :  3.15137e-05
 Reference value :  3.15149e-05
 Reference value :  3.15162e-05
 Reference value :  3.15173e-05
 Reference value :  3.15198e-05
 Reference value :  3.15216e-05
 Reference value :  3.15269e-05
 Reference value :  3.15398e-05
 Reference value :  3.15677e-05
 Reference value :  3.16462e-05
 Reference value :  3.17501e-05
 Reference value :  3.17501e-05
 Reference value :  3.17502e-05
 Reference value :  3.17502e-05
 Reference value :  3.17503e-05
 Reference value :  3.17506e-05
 Reference value :  3.17511e-05
 Reference value :  3.17515e-05
 Reference value :  3.17524e-05
 Reference value :  3.17538e-05
 Reference value :  3.17543e-05
 Reference value :  3.17555e-05
 Reference value :  3.17562e-05
 Reference value :  3.17586e-05
 Reference value :  3.17638e-05
 Reference value :  3.17784e-05
 Reference value :  3.18304e-05
 Reference value :  3.20000e-05
 Reference value :  3.20001e-05
 Reference value :  3.20001e-05
 Reference value :  3.20002e-05
 Reference value :  3.20003e-05
 Reference value :  3.20010e-05
 Reference value :  3.20019e-05
 Reference value :  3.20024e-05
 Reference value :  3.20029e-05
 Reference value :  3.20035e-05
 Reference value :  3.20047e-05
 Reference value :  3.20055e-05
 Reference value :  3.20061e-05
 Reference value :  3.20068e-05
 Reference value :  3.20086e-05
 Reference value :  3.20106e-05
 Reference value :  3.20133e-05
 Reference value :  3.20195e-05
 Reference value :  3.20361e-05
 Reference value :  3.21616e-05
 Reference value :  3.22501e-05
 Reference value :  3.22502e-05
 Reference value :  3.22502e-05
 Reference value :  3.22503e-05
 Reference value :  3.22508e-05
 Reference value :  3.22515e-05
 Reference value :  3.22524e-05
 Reference value :  3.22537e-05
 Reference value :  3.22543e-05
 Reference value :  3.22554e-05
 Reference value :  3.22569e-05
 Reference value :  3.22635e-05
 Reference value :  3.22931e-05
 Reference value :  3.24821e-05
 Reference value :  3.25000e-05
 Reference value :  3.25001e-05
 Reference value :  3.25002e-05
 Reference value :  3.25010e-05
 Reference value :  3.25024e-05
 Reference value :  3.25035e-05
 Reference value :  3.25052e-05
 Reference value :  3.25065e-05
 Reference value :  3.25088e-05
 Reference value :  3.25121e-05
 Reference value :  3.25150e-05
 Reference value :  3.25174e-05
 Reference value :  3.25199e-05
 Reference value :  3.25237e-05
 Reference value :  3.25398e-05
 Reference value :  3.25688e-05
 Reference value :  3.25856e-05
 Reference value :  3.26055e-05
 Reference value :  3.26330e-05
 Reference value :  3.27167e-05
 Reference value :  3.27501e-05
 Reference value :  3.27502e-05
 Reference value :  3.27502e-05
 Reference value :  3.27502e-05
 Reference value :  3.27504e-05
 Reference value :  3.27508e-05
 Reference value :  3.27515e-05
 Reference value :  3.27524e-05
 Reference value :  3.27537e-05
 Reference value :  3.27543e-05
 Reference value :  3.27554e-05
 Reference value :  3.27571e-05
 Reference value :  3.27639e-05
 Reference value :  3.27966e-05
 Reference value :  3.30000e-05
 Reference value :  3.30001e-05
 Reference value :  3.30001e-05
 Reference value :  3.30003e-05
 Reference value :  3.30014e-05
 Reference value :  3.30024e-05
 Reference value :  3.30035e-05
 Reference value :  3.30055e-05
 Reference value :  3.30060e-05
 Reference value :  3.30077e-05
 Reference value :  3.30097e-05
 Reference value :  3.30120e-05
 Reference value :  3.30199e-05
 Reference value :  3.30575e-05
 Reference value :  3.32501e-05
 Reference value :  3.32502e-05
 Reference value :  3.32502e-05
 Reference value :  3.32504e-05
 Reference value :  3.32511e-05
 Reference value :  3.32520e-05
 Reference value :  3.32531e-05
 Reference value :  3.32542e-05
 Reference value :  3.32562e-05
 Reference value :  3.32586e-05
 Reference value :  3.32633e-05
 Reference value :  3.32709e-05
 Reference value :  3.33041e-05
 Reference value :  3.34271e-05
 Reference value :  3.35012e-05
 Reference value :  3.35035e-05
 Reference value :  3.35046e-05
 Reference value :  3.35068e-05
 Reference value :  3.35087e-05
 Reference value :  3.35106e-05
 Reference value :  3.35145e-05
 Reference value :  3.35185e-05
 Reference value :  3.35283e-05
 Reference value :  3.35397e-05
 Reference value :  3.35588e-05
 Reference value :  3.35742e-05
 Reference value :  3.36292e-05
 Reference value :  3.37501e-05
 Reference value :  3.37502e-05
 Reference value :  3.37503e-05
 Reference value :  3.37506e-05
 Reference value :  3.37511e-05
 Reference value :  3.37519e-05
 Reference value :  3.37536e-05
 Reference value :  3.37551e-05
 Reference value :  3.37591e-05
 Reference value :  3.37691e-05
 Reference value :  3.38038e-05
 Reference value :  3.39434e-05
 Reference value :  3.40000e-05
 Reference value :  3.40001e-05
 Reference value :  3.40002e-05
 Reference value :  3.40010e-05
 Reference value :  3.40025e-05
 Reference value :  3.40037e-05
 Reference value :  3.40047e-05
 Reference value :  3.40059e-05
 Reference value :  3.40097e-05
 Reference value :  3.40235e-05
 Reference value :  3.40298e-05
 Reference value :  3.40339e-05
 Reference value :  3.40389e-05
 Reference value :  3.40420e-05
 Reference value :  3.40480e-05
 Reference value :  3.40599e-05
 Reference value :  3.40825e-05
 Reference value :  3.41296e-05
 Reference value :  3.42101e-05
 Reference value :  3.42218e-05
 Reference value :  3.42302e-05
 Reference value :  3.42455e-05
 Reference value :  3.42501e-05
 Reference value :  3.42502e-05
 Reference value :  3.42503e-05
 Reference value :  3.42509e-05
 Reference value :  3.42518e-05
 Reference value :  3.42528e-05
 Reference value :  3.42540e-05
 Reference value :  3.42557e-05
 Reference value :  3.42595e-05
 Reference value :  3.42722e-05
 Reference value :  3.43642e-05
 Reference value :  3.45000e-05
 Reference value :  3.45001e-05
 Reference value :  3.45002e-05
 Reference value :  3.45005e-05
 Reference value :  3.45012e-05
 Reference value :  3.45020e-05
 Reference value :  3.45030e-05
 Reference value :  3.45041e-05
 Reference value :  3.45056e-05
 Reference value :  3.45083e-05
 Reference value :  3.45094e-05
 Reference value :  3.45106e-05
 Reference value :  3.45120e-05
 Reference value :  3.45147e-05
 Reference value :  3.45188e-05
 Reference value :  3.45377e-05
 Reference value :  3.46368e-05
 Reference value :  3.47501e-05
 Reference value :  3.47502e-05
 Reference value :  3.47503e-05
 Reference value :  3.47506e-05
 Reference value :  3.47514e-05
 Reference value :  3.47522e-05
 Reference value :  3.47535e-05
 Reference value :  3.47540e-05
 Reference value :  3.47552e-05
 Reference value :  3.47559e-05
 Reference value :  3.47574e-05
 Reference value :  3.47591e-05
 Reference value :  3.47654e-05
 Reference value :  3.47846e-05
 Reference value :  3.48850e-05
 Reference value :  3.50000e-05
 Reference value :  3.50001e-05
 Reference value :  3.50002e-05
 Reference value :  3.50005e-05
 Reference value :  3.50016e-05
 Reference value :  3.50026e-05
 Reference value :  3.50031e-05
 Reference value :  3.50042e-05
 Reference value :  3.50052e-05
 Reference value :  3.50065e-05
 Reference value :  3.50082e-05
 Reference value :  3.50102e-05
 Reference value :  3.50121e-05
 Reference value :  3.50138e-05
 Reference value :  3.50156e-05
 Reference value :  3.50174e-05
 Reference value :  3.50196e-05
 Reference value :  3.50283e-05
 Reference value :  3.50704e-05
 Reference value :  3.52465e-05
 Reference value :  3.52501e-05
 Reference value :  3.52502e-05
 Reference value :  3.52503e-05
 Reference value :  3.52509e-05
 Reference value :  3.52518e-05
 Reference value :  3.52528e-05
 Reference value :  3.52540e-05
 Reference value :  3.52551e-05
 Reference value :  3.52566e-05
 Reference value :  3.52626e-05
 Reference value :  3.52883e-05
 Reference value :  3.54748e-05
 Reference value :  3.55000e-05
 Reference value :  3.55001e-05
 Reference value :  3.55002e-05
 Reference value :  3.55009e-05
 Reference value :  3.55016e-05
 Reference value :  3.55025e-05
 Reference value :  3.55030e-05
 Reference value :  3.55041e-05
 Reference value :  3.55056e-05
 Reference value :  3.55063e-05
 Reference value :  3.55080e-05
 Reference value :  3.55099e-05
 Reference value :  3.55123e-05
 Reference value :  3.55257e-05
 Reference value :  3.56060e-05
 Reference value :  3.57501e-05
 Reference value :  3.57502e-05
 Reference value :  3.57502e-05
 Reference value :  3.57504e-05
 Reference value :  3.57514e-05
 Reference value :  3.57522e-05
 Reference value :  3.57535e-05
 Reference value :  3.57540e-05
 Reference value :  3.57552e-05
 Reference value :  3.57567e-05
 Reference value :  3.57586e-05
 Reference value :  3.57636e-05
 Reference value :  3.57804e-05
 Reference value :  3.58507e-05
 Reference value :  3.60000e-05
 Reference value :  3.60000e-05
 Reference value :  3.60001e-05
 Reference value :  3.60001e-05
 Reference value :  3.60003e-05
 Reference value :  3.60008e-05
 Reference value :  3.60016e-05
 Reference value :  3.60026e-05
 Reference value :  3.60037e-05
 Reference value :  3.60048e-05
 Reference value :  3.60059e-05
 Reference value :  3.60075e-05
 Reference value :  3.60086e-05
 Reference value :  3.60103e-05
 Reference value :  3.60112e-05
 Reference value :  3.60132e-05
 Reference value :  3.60139e-05
 Reference value :  3.60157e-05
 Reference value :  3.60176e-05
 Reference value :  3.60221e-05
 Reference value :  3.60366e-05
 Reference value :  3.60986e-05
 Reference value :  3.61303e-05
 Reference value :  3.61561e-05
 Reference value :  3.61785e-05
 Reference value :  3.61897e-05
 Reference value :  3.62005e-05
 Reference value :  3.62221e-05
 Reference value :  3.62501e-05
 Reference value :  3.62502e-05
 Reference value :  3.62503e-05
 Reference value :  3.62506e-05
 Reference value :  3.62518e-05
 Reference value :  3.62528e-05
 Reference value :  3.62540e-05
 Reference value :  3.62552e-05
 Reference value :  3.62566e-05
 Reference value :  3.62627e-05
 Reference value :  3.62887e-05
 Reference value :  3.64622e-05
 Reference value :  3.65000e-05
 Reference value :  3.65001e-05
 Reference value :  3.65002e-05
 Reference value :  3.65009e-05
 Reference value :  3.65016e-05
 Reference value :  3.65026e-05
 Reference value :  3.65031e-05
 Reference value :  3.65042e-05
 Reference value :  3.65058e-05
 Reference value :  3.65072e-05
 Reference value :  3.65090e-05
 Reference value :  3.65111e-05
 Reference value :  3.65180e-05
 Reference value :  3.65500e-05
 Reference value :  3.67501e-05
 Reference value :  3.67502e-05
 Reference value :  3.67502e-05
 Reference value :  3.67504e-05
 Reference value :  3.67514e-05
 Reference value :  3.67522e-05
 Reference value :  3.67535e-05
 Reference value :  3.67540e-05
 Reference value :  3.67552e-05
 Reference value :  3.67581e-05
 Reference value :  3.67668e-05
 Reference value :  3.68171e-05
 Reference value :  3.70000e-05
 Reference value :  3.70001e-05
 Reference value :  3.70001e-05
 Reference value :  3.70002e-05
 Reference value :  3.70009e-05
 Reference value :  3.70016e-05
 Reference value :  3.70026e-05
 Reference value :  3.70037e-05
 Reference value :  3.70048e-05
 Reference value :  3.70053e-05
 Reference value :  3.70076e-05
 Reference value :  3.70112e-05
 Reference value :  3.70128e-05
 Reference value :  3.70141e-05
 Reference value :  3.70166e-05
 Reference value :  3.70192e-05
 Reference value :  3.70253e-05
 Reference value :  3.70516e-05
 Reference value :  3.70671e-05
 Reference value :  3.70780e-05
 Reference value :  3.70951e-05
 Reference value :  3.71104e-05
 Reference value :  3.71425e-05
 Reference value :  3.72346e-05
 Reference value :  3.72501e-05
 Reference value :  3.72502e-05
 Reference value :  3.72503e-05
 Reference value :  3.72509e-05
 Reference value :  3.72518e-05
 Reference value :  3.72528e-05
 Reference value :  3.72540e-05
 Reference value :  3.72551e-05
 Reference value :  3.72565e-05
 Reference value :  3.72625e-05
 Reference value :  3.72870e-05
 Reference value :  3.74724e-05
 Reference value :  3.75000e-05
 Reference value :  3.75001e-05
 Reference value :  3.75002e-05
 Reference value :  3.75009e-05
 Reference value :  3.75016e-05
 Reference value :  3.75025e-05
 Reference value :  3.75036e-05
 Reference value :  3.75049e-05
 Reference value :  3.75062e-05
 Reference value :  3.75079e-05
 Reference value :  3.75099e-05
 Reference value :  3.75123e-05
 Reference value :  3.75257e-05
 Reference value :  3.76081e-05
 Reference value :  3.77501e-05
 Reference value :  3.77502e-05
 Reference value :  3.77503e-05
 Reference value :  3.77506e-05
 Reference value :  3.77514e-05
 Reference value :  3.77518e-05
 Reference value :  3.77528e-05
 Reference value :  3.77540e-05
 Reference value :  3.77552e-05
 Reference value :  3.77567e-05
 Reference value :  3.77586e-05
 Reference value :  3.77635e-05
 Reference value :  3.77801e-05
 Reference value :  3.78479e-05
 Reference value :  3.80000e-05
 Reference value :  3.80001e-05
 Reference value :  3.80001e-05
 Reference value :  3.80003e-05
 Reference value :  3.80009e-05
 Reference value :  3.80016e-05
 Reference value :  3.80026e-05
 Reference value :  3.80037e-05
 Reference value :  3.80047e-05
 Reference value :  3.80052e-05
 Reference value :  3.80065e-05
 Reference value :  3.80082e-05
 Reference value :  3.80102e-05
 Reference value :  3.80124e-05
 Reference value :  3.80147e-05
 Reference value :  3.80167e-05
 Reference value :  3.80190e-05
 Reference value :  3.80248e-05
 Reference value :  3.80276e-05
 Reference value :  3.80327e-05
 Reference value :  3.80408e-05
 Reference value :  3.80665e-05
 Reference value :  3.80869e-05
 Reference value :  3.81077e-05
 Reference value :  3.81758e-05
 Reference value :  3.82501e-05
 Reference value :  3.82502e-05
 Reference value :  3.82503e-05
 Reference value :  3.82506e-05
 Reference value :  3.82515e-05
 Reference value :  3.82524e-05
 Reference value :  3.82537e-05
 Reference value :  3.82543e-05
 Reference value :  3.82554e-05
 Reference value :  3.82569e-05
 Reference value :  3.82634e-05
 Reference value :  3.82933e-05
 Reference value :  3.84952e-05
 Reference value :  3.85001e-05
 Reference value :  3.85001e-05
 Reference value :  3.85001e-05
 Reference value :  3.85005e-05
 Reference value :  3.85012e-05
 Reference value :  3.85021e-05
 Reference value :  3.85031e-05
 Reference value :  3.85048e-05
 Reference value :  3.85063e-05
 Reference value :  3.85079e-05
 Reference value :  3.85098e-05
 Reference value :  3.85121e-05
 Reference value :  3.85265e-05
 Reference value :  3.86323e-05
 Reference value :  3.87501e-05
 Reference value :  3.87502e-05
 Reference value :  3.87503e-05
 Reference value :  3.87508e-05
 Reference value :  3.87515e-05
 Reference value :  3.87531e-05
 Reference value :  3.87543e-05
 Reference value :  3.87562e-05
 Reference value :  3.87607e-05
 Reference value :  3.87771e-05
 Reference value :  3.88798e-05
 Reference value :  3.90000e-05
 Reference value :  3.90001e-05
 Reference value :  3.90001e-05
 Reference value :  3.90003e-05
 Reference value :  3.90014e-05
 Reference value :  3.90024e-05
 Reference value :  3.90035e-05
 Reference value :  3.90047e-05
 Reference value :  3.90052e-05
 Reference value :  3.90065e-05
 Reference value :  3.90088e-05
 Reference value :  3.90122e-05
 Reference value :  3.90150e-05
 Reference value :  3.90187e-05
 Reference value :  3.90223e-05
 Reference value :  3.90343e-05
 Reference value :  3.90753e-05
 Reference value :  3.91782e-05
 Reference value :  3.92501e-05
 Reference value :  3.92502e-05
 Reference value :  3.92503e-05
 Reference value :  3.92506e-05
 Reference value :  3.92515e-05
 Reference value :  3.92524e-05
 Reference value :  3.92538e-05
 Reference value :  3.92543e-05
 Reference value :  3.92563e-05
 Reference value :  3.92609e-05
 Reference value :  3.92786e-05
 Reference value :  3.93987e-05
 Reference value :  3.95000e-05
 Reference value :  3.95001e-05
 Reference value :  3.95002e-05
 Reference value :  3.95006e-05
 Reference value :  3.95019e-05
 Reference value :  3.95029e-05
 Reference value :  3.95041e-05
 Reference value :  3.95055e-05
 Reference value :  3.95061e-05
 Reference value :  3.95077e-05
 Reference value :  3.95096e-05
 Reference value :  3.95119e-05
 Reference value :  3.95195e-05
 Reference value :  3.95542e-05
 Reference value :  3.97501e-05
 Reference value :  3.97502e-05
 Reference value :  3.97502e-05
 Reference value :  3.97504e-05
 Reference value :  3.97508e-05
 Reference value :  3.97515e-05
 Reference value :  3.97524e-05
 Reference value :  3.97537e-05
 Reference value :  3.97548e-05
 Reference value :  3.97562e-05
 Reference value :  3.97607e-05
 Reference value :  3.97770e-05
 Reference value :  3.98792e-05
 Reference value :  4.00000e-05
 Reference value :  4.00001e-05
 Reference value :  4.00002e-05
 Reference value :  4.00006e-05
 Reference value :  4.00014e-05
 Reference value :  4.00018e-05
 Reference value :  4.00024e-05
 Reference value :  4.00029e-05
 Reference value :  4.00035e-05
 Reference value :  4.00047e-05
 Reference value :  4.00052e-05
 Reference value :  4.00065e-05
 Reference value :  4.00088e-05
 Reference value :  4.00121e-05
 Reference value :  4.00149e-05
 Reference value :  4.00173e-05
 Reference value :  4.00198e-05
 Reference value :  4.00236e-05
 Reference value :  4.00402e-05
 Reference value :  4.01027e-05
 Reference value :  4.02501e-05
 Reference value :  4.02501e-05
 Reference value :  4.02502e-05
 Reference value :  4.02503e-05
 Reference value :  4.02508e-05
 Reference value :  4.02515e-05
 Reference value :  4.02524e-05
 Reference value :  4.02538e-05
 Reference value :  4.02543e-05
 Reference value :  4.02555e-05
 Reference value :  4.02571e-05
 Reference value :  4.02638e-05
 Reference value :  4.02787e-05
 Reference value :  4.03992e-05
 Reference value :  4.05000e-05
 Reference value :  4.05001e-05
 Reference value :  4.05002e-05
 Reference value :  4.05010e-05
 Reference value :  4.05019e-05
 Reference value :  4.05029e-05
 Reference value :  4.05035e-05
 Reference value :  4.05047e-05
 Reference value :  4.05061e-05
 Reference value :  4.05077e-05
 Reference value :  4.05096e-05
 Reference value :  4.05119e-05
 Reference value :  4.05195e-05
 Reference value :  4.05541e-05
 Reference value :  4.07501e-05
 Reference value :  4.07502e-05
 Reference value :  4.07502e-05
 Reference value :  4.07503e-05
 Reference value :  4.07508e-05
 Reference value :  4.07515e-05
 Reference value :  4.07524e-05
 Reference value :  4.07537e-05
 Reference value :  4.07543e-05
 Reference value :  4.07554e-05
 Reference value :  4.07569e-05
 Reference value :  4.07635e-05
 Reference value :  4.07932e-05
 Reference value :  4.09853e-05
 Reference value :  4.10003e-05
 Reference value :  4.10010e-05
 Reference value :  4.10017e-05
 Reference value :  4.10027e-05
 Reference value :  4.10032e-05
 Reference value :  4.10043e-05
 Reference value :  4.10055e-05
 Reference value :  4.10083e-05
 Reference value :  4.10117e-05
 Reference value :  4.10146e-05
 Reference value :  4.10167e-05
 Reference value :  4.10192e-05
 Reference value :  4.10251e-05
 Reference value :  4.10520e-05
 Reference value :  4.12011e-05
 Reference value :  4.12501e-05
 Reference value :  4.12502e-05
 Reference value :  4.12503e-05
 Reference value :  4.12508e-05
 Reference value :  4.12515e-05
[...]
 Reference value :  5.34330e-04
 Reference value :  5.34500e-04
 Reference value :  5.34500e-04
 Reference value :  5.34500e-04
 Reference value :  5.34500e-04
 Reference value :  5.34501e-04
 Reference value :  5.34502e-04
 Reference value :  5.34503e-04
 Reference value :  5.34503e-04
 Reference value :  5.34505e-04
 Reference value :  5.34506e-04
 Reference value :  5.34508e-04
 Reference value :  5.34509e-04
 Reference value :  5.34511e-04
 Reference value :  5.34513e-04
 Reference value :  5.34526e-04
 Reference value :  5.34589e-04
 Reference value :  5.34750e-04
 Reference value :  5.34750e-04
 Reference value :  5.34750e-04
 Reference value :  5.34750e-04
 Reference value :  5.34751e-04
 Reference value :  5.34752e-04
 Reference value :  5.34752e-04
 Reference value :  5.34754e-04
 Reference value :  5.34754e-04
 Reference value :  5.34755e-04
 Reference value :  5.34756e-04
 Reference value :  5.34758e-04
 Reference value :  5.34768e-04
 Reference value :  5.34823e-04
 Reference value :  5.35000e-04
 Reference value :  5.35000e-04
 Reference value :  5.35001e-04
 Reference value :  5.35002e-04
 Reference value :  5.35003e-04
 Reference value :  5.35003e-04
 Reference value :  5.35004e-04
 Reference value :  5.35005e-04
 Reference value :  5.35007e-04
 Reference value :  5.35008e-04
 Reference value :  5.35010e-04
 Reference value :  5.35011e-04
 Reference value :  5.35019e-04
 Reference value :  5.35064e-04
 Reference value :  5.35218e-04
 Reference value :  5.35250e-04
 Reference value :  5.35250e-04
 Reference value :  5.35250e-04
 Reference value :  5.35251e-04
 Reference value :  5.35251e-04
 Reference value :  5.35252e-04
 Reference value :  5.35252e-04
 Reference value :  5.35254e-04
 Reference value :  5.35256e-04
 Reference value :  5.35258e-04
 Reference value :  5.35267e-04
 Reference value :  5.35317e-04
 Reference value :  5.35500e-04
 Reference value :  5.35500e-04
 Reference value :  5.35500e-04
 Reference value :  5.35500e-04
 Reference value :  5.35500e-04
 Reference value :  5.35501e-04
 Reference value :  5.35502e-04
 Reference value :  5.35503e-04
 Reference value :  5.35504e-04
 Reference value :  5.35505e-04
 Reference value :  5.35506e-04
 Reference value :  5.35510e-04
 Reference value :  5.35518e-04
 Reference value :  5.35524e-04
 Reference value :  5.35530e-04
 Reference value :  5.35534e-04
 Reference value :  5.35537e-04
 Reference value :  5.35539e-04
 Reference value :  5.35543e-04
 Reference value :  5.35546e-04
 Reference value :  5.35553e-04
 Reference value :  5.35570e-04
 Reference value :  5.35612e-04
 Reference value :  5.35703e-04
 Reference value :  5.35750e-04
 Reference value :  5.35750e-04
 Reference value :  5.35750e-04
 Reference value :  5.35750e-04
 Reference value :  5.35751e-04
 Reference value :  5.35752e-04
 Reference value :  5.35753e-04
 Reference value :  5.35754e-04
 Reference value :  5.35755e-04
 Reference value :  5.35756e-04
 Reference value :  5.35762e-04
 Reference value :  5.35787e-04
 Reference value :  5.35968e-04
 Reference value :  5.36001e-04
 Reference value :  5.36002e-04
 Reference value :  5.36003e-04
 Reference value :  5.36004e-04
 Reference value :  5.36006e-04
 Reference value :  5.36009e-04
 Reference value :  5.36011e-04
 Reference value :  5.36014e-04
 Reference value :  5.36018e-04
 Reference value :  5.36033e-04
 Reference value :  5.36066e-04
 Reference value :  5.36164e-04
 Reference value :  5.36250e-04
 Reference value :  5.36250e-04
 Reference value :  5.36250e-04
 Reference value :  5.36250e-04
 Reference value :  5.36251e-04
 Reference value :  5.36252e-04
 Reference value :  5.36253e-04
 Reference value :  5.36254e-04
 Reference value :  5.36255e-04
 Reference value :  5.36257e-04
 Reference value :  5.36260e-04
 Reference value :  5.36274e-04
 Reference value :  5.36316e-04
 Reference value :  5.36346e-04
 Reference value :  5.36374e-04
 Reference value :  5.36393e-04
 Reference value :  5.36411e-04
 Reference value :  5.36443e-04
 Reference value :  5.36500e-04
 Reference value :  5.36500e-04
 Reference value :  5.36500e-04
 Reference value :  5.36500e-04
 Reference value :  5.36500e-04
 Reference value :  5.36501e-04
 Reference value :  5.36502e-04
 Reference value :  5.36503e-04
 Reference value :  5.36503e-04
 Reference value :  5.36504e-04
 Reference value :  5.36505e-04
 Reference value :  5.36507e-04
 Reference value :  5.36508e-04
 Reference value :  5.36510e-04
 Reference value :  5.36511e-04
 Reference value :  5.36513e-04
 Reference value :  5.36515e-04
 Reference value :  5.36516e-04
 Reference value :  5.36518e-04
 Reference value :  5.36521e-04
 Reference value :  5.36531e-04
 Reference value :  5.36536e-04
 Reference value :  5.36539e-04
 Reference value :  5.36545e-04
 Reference value :  5.36560e-04
 Reference value :  5.36566e-04
 Reference value :  5.36581e-04
 Reference value :  5.36627e-04
 Reference value :  5.36715e-04
 Reference value :  5.36750e-04
 Reference value :  5.36750e-04
 Reference value :  5.36750e-04
 Reference value :  5.36751e-04
 Reference value :  5.36751e-04
 Reference value :  5.36752e-04
 Reference value :  5.36754e-04
 Reference value :  5.36754e-04
 Reference value :  5.36755e-04
 Reference value :  5.36756e-04
 Reference value :  5.36758e-04
 Reference value :  5.36767e-04
 Reference value :  5.36816e-04
 Reference value :  5.36976e-04
 Reference value :  5.37000e-04
 Reference value :  5.37000e-04
 Reference value :  5.37000e-04
 Reference value :  5.37000e-04
 Reference value :  5.37001e-04
 Reference value :  5.37002e-04
 Reference value :  5.37003e-04
 Reference value :  5.37003e-04
 Reference value :  5.37004e-04
 Reference value :  5.37006e-04
 Reference value :  5.37006e-04
 Reference value :  5.37008e-04
 Reference value :  5.37010e-04
 Reference value :  5.37012e-04
 Reference value :  5.37024e-04
 Reference value :  5.37082e-04
 Reference value :  5.37250e-04
 Reference value :  5.37250e-04
 Reference value :  5.37250e-04
 Reference value :  5.37250e-04
 Reference value :  5.37251e-04
 Reference value :  5.37252e-04
 Reference value :  5.37253e-04
 Reference value :  5.37254e-04
 Reference value :  5.37254e-04
 Reference value :  5.37255e-04
 Reference value :  5.37257e-04
 Reference value :  5.37260e-04
 Reference value :  5.37275e-04
 Reference value :  5.37374e-04
 Reference value :  5.37500e-04
 Reference value :  5.37501e-04
 Reference value :  5.37502e-04
 Reference value :  5.37503e-04
 Reference value :  5.37504e-04
 Reference value :  5.37505e-04
 Reference value :  5.37506e-04
 Reference value :  5.37509e-04
 Reference value :  5.37512e-04
 Reference value :  5.37515e-04
 Reference value :  5.37517e-04
 Reference value :  5.37519e-04
 Reference value :  5.37522e-04
 Reference value :  5.37538e-04
 Reference value :  5.37613e-04
 Reference value :  5.37750e-04
 Reference value :  5.37750e-04
 Reference value :  5.37750e-04
 Reference value :  5.37750e-04
 Reference value :  5.37751e-04
 Reference value :  5.37752e-04
 Reference value :  5.37753e-04
 Reference value :  5.37754e-04
 Reference value :  5.37755e-04
 Reference value :  5.37756e-04
 Reference value :  5.37758e-04
 Reference value :  5.37767e-04
 Reference value :  5.37816e-04
 Reference value :  5.38000e-04
 Reference value :  5.38000e-04
 Reference value :  5.38000e-04
 Reference value :  5.38000e-04
 Reference value :  5.38001e-04
 Reference value :  5.38002e-04
 Reference value :  5.38003e-04
 Reference value :  5.38003e-04
 Reference value :  5.38004e-04
 Reference value :  5.38006e-04
 Reference value :  5.38006e-04
 Reference value :  5.38008e-04
 Reference value :  5.38010e-04
 Reference value :  5.38012e-04
 Reference value :  5.38024e-04
 Reference value :  5.38083e-04
 Reference value :  5.38250e-04
 Reference value :  5.38250e-04
 Reference value :  5.38250e-04
 Reference value :  5.38250e-04
 Reference value :  5.38251e-04
 Reference value :  5.38251e-04
 Reference value :  5.38252e-04
 Reference value :  5.38253e-04
 Reference value :  5.38254e-04
 Reference value :  5.38255e-04
 Reference value :  5.38257e-04
 Reference value :  5.38263e-04
 Reference value :  5.38289e-04
 Reference value :  5.38485e-04
 Reference value :  5.38500e-04
 Reference value :  5.38501e-04
 Reference value :  5.38502e-04
 Reference value :  5.38503e-04
 Reference value :  5.38504e-04
 Reference value :  5.38504e-04
 Reference value :  5.38505e-04
 Reference value :  5.38506e-04
 Reference value :  5.38507e-04
 Reference value :  5.38508e-04
 Reference value :  5.38510e-04
 Reference value :  5.38512e-04
 Reference value :  5.38513e-04
 Reference value :  5.38514e-04
 Reference value :  5.38516e-04
 Reference value :  5.38519e-04
 Reference value :  5.38522e-04
 Reference value :  5.38533e-04
 Reference value :  5.38559e-04
 Reference value :  5.38624e-04
 Reference value :  5.38750e-04
 Reference value :  5.38750e-04
 Reference value :  5.38750e-04
 Reference value :  5.38750e-04
 Reference value :  5.38750e-04
 Reference value :  5.38751e-04
 Reference value :  5.38751e-04
 Reference value :  5.38752e-04
 Reference value :  5.38752e-04
 Reference value :  5.38753e-04
 Reference value :  5.38754e-04
 Reference value :  5.38754e-04
 Reference value :  5.38755e-04
 Reference value :  5.38756e-04
 Reference value :  5.38758e-04
 Reference value :  5.38766e-04
 Reference value :  5.38815e-04
 Reference value :  5.39000e-04
 Reference value :  5.39000e-04
 Reference value :  5.39000e-04
 Reference value :  5.39000e-04
 Reference value :  5.39001e-04
 Reference value :  5.39002e-04
 Reference value :  5.39003e-04
 Reference value :  5.39003e-04
 Reference value :  5.39004e-04
 Reference value :  5.39006e-04
 Reference value :  5.39006e-04
 Reference value :  5.39008e-04
 Reference value :  5.39010e-04
 Reference value :  5.39012e-04
 Reference value :  5.39024e-04
 Reference value :  5.39083e-04
 Reference value :  5.39250e-04
 Reference value :  5.39250e-04
 Reference value :  5.39250e-04
 Reference value :  5.39250e-04
 Reference value :  5.39250e-04
 Reference value :  5.39250e-04
 Reference value :  5.39250e-04
 Reference value :  5.39251e-04
 Reference value :  5.39251e-04
 Reference value :  5.39252e-04
 Reference value :  5.39253e-04
 Reference value :  5.39254e-04
 Reference value :  5.39254e-04
 Reference value :  5.39255e-04
 Reference value :  5.39257e-04
 Reference value :  5.39263e-04
 Reference value :  5.39290e-04
 Reference value :  5.39478e-04
 Reference value :  5.39500e-04
 Reference value :  5.39500e-04
 Reference value :  5.39500e-04
 Reference value :  5.39500e-04
 Reference value :  5.39501e-04
 Reference value :  5.39502e-04
 Reference value :  5.39502e-04
 Reference value :  5.39503e-04
 Reference value :  5.39503e-04
 Reference value :  5.39504e-04
 Reference value :  5.39505e-04
 Reference value :  5.39507e-04
 Reference value :  5.39509e-04
 Reference value :  5.39513e-04
 Reference value :  5.39514e-04
 Reference value :  5.39517e-04
 Reference value :  5.39519e-04
 Reference value :  5.39523e-04
 Reference value :  5.39536e-04
 Reference value :  5.39561e-04
 Reference value :  5.39595e-04
 Reference value :  5.39614e-04
 Reference value :  5.39654e-04
 Reference value :  5.39750e-04
 Reference value :  5.39750e-04
 Reference value :  5.39750e-04
 Reference value :  5.39750e-04
 Reference value :  5.39751e-04
 Reference value :  5.39752e-04
 Reference value :  5.39752e-04
 Reference value :  5.39754e-04
 Reference value :  5.39754e-04
 Reference value :  5.39755e-04
 Reference value :  5.39756e-04
 Reference value :  5.39758e-04
 Reference value :  5.39768e-04
 Reference value :  5.39824e-04
 Reference value :  5.40000e-04
 Reference value :  5.40000e-04
 Reference value :  5.40000e-04
 Reference value :  5.40000e-04
 Reference value :  5.40000e-04
 Reference value :  5.40001e-04
 Reference value :  5.40002e-04
 Reference value :  5.40003e-04
 Reference value :  5.40003e-04
 Reference value :  5.40005e-04
 Reference value :  5.40005e-04
 Reference value :  5.40006e-04
 Reference value :  5.40008e-04
 Reference value :  5.40010e-04
 Reference value :  5.40012e-04
 Reference value :  5.40019e-04
 Reference value :  5.40036e-04
 Reference value :  5.40159e-04
 Reference value :  5.40250e-04
 Reference value :  5.40250e-04
 Reference value :  5.40250e-04
 Reference value :  5.40250e-04
 Reference value :  5.40251e-04
 Reference value :  5.40252e-04
 Reference value :  5.40252e-04
 Reference value :  5.40254e-04
 Reference value :  5.40254e-04
 Reference value :  5.40255e-04
 Reference value :  5.40256e-04
 Reference value :  5.40258e-04
 Reference value :  5.40268e-04
 Reference value :  5.40293e-04
 Reference value :  5.40485e-04
 Reference value :  5.40500e-04
 Reference value :  5.40500e-04
 Reference value :  5.40500e-04
 Reference value :  5.40500e-04
 Reference value :  5.40501e-04
 Reference value :  5.40502e-04
 Reference value :  5.40503e-04
 Reference value :  5.40503e-04
 Reference value :  5.40505e-04
 Reference value :  5.40505e-04
 Reference value :  5.40507e-04
 Reference value :  5.40509e-04
 Reference value :  5.40512e-04
 Reference value :  5.40515e-04
 Reference value :  5.40517e-04
 Reference value :  5.40520e-04
 Reference value :  5.40524e-04
 Reference value :  5.40532e-04
 Reference value :  5.40549e-04
 Reference value :  5.40560e-04
 Reference value :  5.40579e-04
 Reference value :  5.40653e-04
 Reference value :  5.40750e-04
 Reference value :  5.40750e-04
 Reference value :  5.40750e-04
 Reference value :  5.40750e-04
 Reference value :  5.40750e-04
 Reference value :  5.40750e-04
 Reference value :  5.40751e-04
 Reference value :  5.40751e-04
 Reference value :  5.40752e-04
 Reference value :  5.40752e-04
 Reference value :  5.40754e-04
 Reference value :  5.40754e-04
 Reference value :  5.40756e-04
 Reference value :  5.40758e-04
 Reference value :  5.40766e-04
 Reference value :  5.40818e-04
 Reference value :  5.40996e-04
 Reference value :  5.41000e-04
 Reference value :  5.41000e-04
 Reference value :  5.41000e-04
 Reference value :  5.41000e-04
 Reference value :  5.41001e-04
 Reference value :  5.41001e-04
 Reference value :  5.41001e-04
 Reference value :  5.41002e-04
 Reference value :  5.41002e-04
 Reference value :  5.41003e-04
 Reference value :  5.41005e-04
 Reference value :  5.41006e-04
 Reference value :  5.41008e-04
 Reference value :  5.41010e-04
 Reference value :  5.41012e-04
 Reference value :  5.41020e-04
 Reference value :  5.41054e-04
 Reference value :  5.41250e-04
 Reference value :  5.41250e-04
 Reference value :  5.41250e-04
 Reference value :  5.41250e-04
 Reference value :  5.41250e-04
 Reference value :  5.41251e-04
 Reference value :  5.41252e-04
 Reference value :  5.41252e-04
 Reference value :  5.41253e-04
 Reference value :  5.41254e-04
 Reference value :  5.41255e-04
 Reference value :  5.41256e-04
 Reference value :  5.41258e-04
 Reference value :  5.41268e-04
 Reference value :  5.41323e-04
 Reference value :  5.41500e-04
 Reference value :  5.41500e-04
 Reference value :  5.41501e-04
 Reference value :  5.41502e-04
 Reference value :  5.41503e-04
 Reference value :  5.41503e-04
 Reference value :  5.41504e-04
 Reference value :  5.41506e-04
 Reference value :  5.41507e-04
 Reference value :  5.41510e-04
 Reference value :  5.41512e-04
 Reference value :  5.41515e-04
 Reference value :  5.41517e-04
 Reference value :  5.41519e-04
 Reference value :  5.41522e-04
 Reference value :  5.41530e-04
 Reference value :  5.41555e-04
 Reference value :  5.41656e-04
 Reference value :  5.41750e-04
 Reference value :  5.41750e-04
 Reference value :  5.41750e-04
 Reference value :  5.41750e-04
 Reference value :  5.41751e-04
 Reference value :  5.41751e-04
 Reference value :  5.41752e-04
 Reference value :  5.41752e-04
 Reference value :  5.41753e-04
 Reference value :  5.41754e-04
 Reference value :  5.41755e-04
 Reference value :  5.41756e-04
 Reference value :  5.41761e-04
 Reference value :  5.41769e-04
 Reference value :  5.41831e-04
 Reference value :  5.42000e-04
 Reference value :  5.42000e-04
 Reference value :  5.42000e-04
 Reference value :  5.42000e-04
 Reference value :  5.42001e-04
 Reference value :  5.42002e-04
 Reference value :  5.42003e-04
 Reference value :  5.42003e-04
 Reference value :  5.42005e-04
 Reference value :  5.42006e-04
 Reference value :  5.42008e-04
 Reference value :  5.42009e-04
 Reference value :  5.42011e-04
 Reference value :  5.42013e-04
 Reference value :  5.42026e-04
 Reference value :  5.42090e-04
 Reference value :  5.42250e-04
 Reference value :  5.42250e-04
 Reference value :  5.42250e-04
 Reference value :  5.42250e-04
 Reference value :  5.42251e-04
 Reference value :  5.42251e-04
 Reference value :  5.42252e-04
 Reference value :  5.42252e-04
 Reference value :  5.42254e-04
 Reference value :  5.42254e-04
 Reference value :  5.42255e-04
 Reference value :  5.42257e-04
 Reference value :  5.42261e-04
 Reference value :  5.42277e-04
 Reference value :  5.42380e-04
 Reference value :  5.42500e-04
 Reference value :  5.42501e-04
 Reference value :  5.42502e-04
 Reference value :  5.42502e-04
 Reference value :  5.42503e-04
 Reference value :  5.42504e-04
 Reference value :  5.42505e-04
 Reference value :  5.42507e-04
 Reference value :  5.42509e-04
 Reference value :  5.42511e-04
 Reference value :  5.42512e-04
 Reference value :  5.42515e-04
 Reference value :  5.42518e-04
 Reference value :  5.42521e-04
 Reference value :  5.42531e-04
 Reference value :  5.42570e-04
 Reference value :  5.42662e-04
 Reference value :  5.42750e-04
 Reference value :  5.42750e-04
 Reference value :  5.42750e-04
 Reference value :  5.42751e-04
 Reference value :  5.42751e-04
 Reference value :  5.42752e-04
 Reference value :  5.42752e-04
 Reference value :  5.42754e-04
 Reference value :  5.42754e-04
 Reference value :  5.42755e-04
 Reference value :  5.42757e-04
 Reference value :  5.42761e-04
 Reference value :  5.42778e-04
 Reference value :  5.42896e-04
 Reference value :  5.43000e-04
 Reference value :  5.43000e-04
 Reference value :  5.43000e-04
 Reference value :  5.43000e-04
 Reference value :  5.43001e-04
 Reference value :  5.43002e-04
 Reference value :  5.43003e-04
 Reference value :  5.43003e-04
 Reference value :  5.43005e-04
 Reference value :  5.43006e-04
 Reference value :  5.43008e-04
 Reference value :  5.43010e-04
 Reference value :  5.43012e-04
 Reference value :  5.43020e-04
 Reference value :  5.43036e-04
 Reference value :  5.43163e-04
 Reference value :  5.43250e-04
 Reference value :  5.43250e-04
 Reference value :  5.43250e-04
 Reference value :  5.43251e-04
 Reference value :  5.43251e-04
 Reference value :  5.43252e-04
 Reference value :  5.43252e-04
 Reference value :  5.43254e-04
 Reference value :  5.43254e-04
 Reference value :  5.43255e-04
 Reference value :  5.43257e-04
 Reference value :  5.43264e-04
 Reference value :  5.43293e-04
 Reference value :  5.43482e-04
 Reference value :  5.43500e-04
 Reference value :  5.43500e-04
 Reference value :  5.43500e-04
 Reference value :  5.43500e-04
 Reference value :  5.43501e-04
 Reference value :  5.43502e-04
 Reference value :  5.43503e-04
 Reference value :  5.43503e-04
 Reference value :  5.43505e-04
 Reference value :  5.43505e-04
 Reference value :  5.43507e-04
 Reference value :  5.43507e-04
 Reference value :  5.43508e-04
 Reference value :  5.43510e-04
 Reference value :  5.43517e-04
 Reference value :  5.43568e-04
 Reference value :  5.43750e-04
 Reference value :  5.43750e-04
 Reference value :  5.43750e-04
 Reference value :  5.43750e-04
 Reference value :  5.43750e-04
 Reference value :  5.43751e-04
 Reference value :  5.43752e-04
 Reference value :  5.43753e-04
 Reference value :  5.43754e-04
 Reference value :  5.43756e-04
 Reference value :  5.43758e-04
 Reference value :  5.43763e-04
 Reference value :  5.43790e-04
 Reference value :  5.44000e-04
No. of Data Rows : 79935
ngspice-44 done
