
Note: Compatibility modes selected: hs a


Circuit: ** sch_path: /home/ece/cace/sar-adc-using-sky130-pdk/runs/run_2025-09-13_04-39-15/parameters/dnl/run_0/sar_output_dnl.sch

option SCALE: Scale is set to 1e-06 for instance and model parameters
option SCALE: Scale is set to 1e-06 for instance and model parameters
option SCALE: Scale is set to 1e-06 for instance and model parameters
option SCALE: Scale is set to 1e-06 for instance and model parameters
Doing analysis at TEMP = 125.000000 and TNOM = 27.000000

Using KLU as Direct Linear Solver
Operating point simulation skipped by 'uic',
  now using transient initial conditions.
 Reference value :  1.00000e-12
 Reference value :  1.02772e-12
 Reference value :  1.08316e-12
 Reference value :  1.19404e-12
 Reference value :  1.33844e-12
 Reference value :  1.62723e-12
 Reference value :  2.20481e-12
 Reference value :  3.04828e-12
 Reference value :  3.95171e-12
 Reference value :  5.16927e-12
 Reference value :  6.90036e-12
 Reference value :  1.02003e-11
 Reference value :  1.39820e-11
 Reference value :  2.07989e-11
 Reference value :  2.81981e-11
 Reference value :  3.75283e-11
 Reference value :  4.87835e-11
 Reference value :  6.69050e-11
 Reference value :  8.84181e-11
 Reference value :  1.00000e-10
 Reference value :  1.00987e-10
 Reference value :  1.02960e-10
 Reference value :  1.06907e-10
 Reference value :  1.14800e-10
 Reference value :  1.30586e-10
 Reference value :  1.62159e-10
 Reference value :  2.25305e-10
 Reference value :  3.51596e-10
 Reference value :  5.07125e-10
 Reference value :  7.33875e-10
 Reference value :  1.04837e-09
 Reference value :  1.52270e-09
 Reference value :  2.28507e-09
 Reference value :  3.06560e-09
 Reference value :  3.78619e-09
 Reference value :  4.68650e-09
 Reference value :  5.73028e-09
 Reference value :  6.81058e-09
 Reference value :  8.06868e-09
 Reference value :  8.96676e-09
 Reference value :  9.80692e-09
 Reference value :  1.07754e-08
 Reference value :  1.18070e-08
 Reference value :  1.38703e-08
 Reference value :  1.72708e-08
 Reference value :  2.13323e-08
 Reference value :  2.51561e-08
 Reference value :  2.83959e-08
 Reference value :  3.19929e-08
 Reference value :  3.61004e-08
 Reference value :  3.99573e-08
 Reference value :  4.58327e-08
 Reference value :  5.45093e-08
 Reference value :  6.83803e-08
 Reference value :  9.61224e-08
 Reference value :  1.40299e-07
 Reference value :  2.11901e-07
 Reference value :  2.50100e-07
 Reference value :  2.50110e-07
 Reference value :  2.50130e-07
 Reference value :  2.50170e-07
 Reference value :  2.50200e-07
 Reference value :  2.50201e-07
 Reference value :  2.50202e-07
 Reference value :  2.50204e-07
 Reference value :  2.50208e-07
 Reference value :  2.50216e-07
 Reference value :  2.50233e-07
 Reference value :  2.50267e-07
 Reference value :  2.50335e-07
 Reference value :  2.50470e-07
 Reference value :  2.50608e-07
 Reference value :  2.50872e-07
 Reference value :  2.51133e-07
 Reference value :  2.51655e-07
 Reference value :  2.52254e-07
 Reference value :  2.52973e-07
 Reference value :  2.53719e-07
 Reference value :  2.54784e-07
 Reference value :  2.55782e-07
 Reference value :  2.56847e-07
 Reference value :  2.57879e-07
 Reference value :  2.59010e-07
 Reference value :  2.60108e-07
 Reference value :  2.62106e-07
 Reference value :  2.64936e-07
 Reference value :  2.68070e-07
 Reference value :  2.72377e-07
 Reference value :  2.79209e-07
 Reference value :  2.92875e-07
 Reference value :  3.20207e-07
 Reference value :  3.73373e-07
 Reference value :  4.79705e-07
 Reference value :  5.00000e-07
 Reference value :  5.00010e-07
 Reference value :  5.00030e-07
 Reference value :  5.00070e-07
 Reference value :  5.00100e-07
 Reference value :  5.00104e-07
 Reference value :  5.00112e-07
 Reference value :  5.00129e-07
 Reference value :  5.00162e-07
 Reference value :  5.00227e-07
 Reference value :  5.00358e-07
 Reference value :  5.00601e-07
 Reference value :  5.00927e-07
 Reference value :  5.01578e-07
 Reference value :  5.02172e-07
 Reference value :  5.02906e-07
 Reference value :  5.03778e-07
 Reference value :  5.04751e-07
 Reference value :  5.05680e-07
 Reference value :  5.06779e-07
 Reference value :  5.08048e-07
 Reference value :  5.09386e-07
 Reference value :  5.11467e-07
 Reference value :  5.13960e-07
 Reference value :  5.16281e-07
 Reference value :  5.18589e-07
 Reference value :  5.21067e-07
 Reference value :  5.23545e-07
 Reference value :  5.26785e-07
 Reference value :  5.32281e-07
 Reference value :  5.40141e-07
 Reference value :  5.52952e-07
 Reference value :  5.78576e-07
 Reference value :  6.29824e-07
 Reference value :  7.32320e-07
 Reference value :  7.50100e-07
 Reference value :  7.50110e-07
 Reference value :  7.50130e-07
 Reference value :  7.50170e-07
 Reference value :  7.50200e-07
 Reference value :  7.50201e-07
 Reference value :  7.50202e-07
 Reference value :  7.50205e-07
 Reference value :  7.50210e-07
 Reference value :  7.50222e-07
 Reference value :  7.50244e-07
 Reference value :  7.50288e-07
 Reference value :  7.50378e-07
 Reference value :  7.50556e-07
 Reference value :  7.50913e-07
 Reference value :  7.51533e-07
 Reference value :  7.52276e-07
 Reference value :  7.53026e-07
 Reference value :  7.53887e-07
 Reference value :  7.54996e-07
 Reference value :  7.55856e-07
 Reference value :  7.56859e-07
 Reference value :  7.57831e-07
 Reference value :  7.58852e-07
 Reference value :  7.60150e-07
 Reference value :  7.61547e-07
 Reference value :  7.64340e-07
 Reference value :  7.67291e-07
 Reference value :  7.72449e-07
 Reference value :  7.79137e-07
 Reference value :  7.92513e-07
 Reference value :  8.19265e-07
 Reference value :  8.72768e-07
 Reference value :  9.79775e-07
 Reference value :  1.00000e-06
 Reference value :  1.00001e-06
 Reference value :  1.00003e-06
 Reference value :  1.00007e-06
 Reference value :  1.00010e-06
 Reference value :  1.00010e-06
 Reference value :  1.00011e-06
 Reference value :  1.00013e-06
 Reference value :  1.00016e-06
 Reference value :  1.00023e-06
 Reference value :  1.00036e-06
 Reference value :  1.00060e-06
 Reference value :  1.00092e-06
 Reference value :  1.00157e-06
 Reference value :  1.00217e-06
 Reference value :  1.00290e-06
 Reference value :  1.00377e-06
 Reference value :  1.00469e-06
 Reference value :  1.00568e-06
 Reference value :  1.00660e-06
 Reference value :  1.00756e-06
 Reference value :  1.00847e-06
 Reference value :  1.00954e-06
 Reference value :  1.01062e-06
 Reference value :  1.01202e-06
 Reference value :  1.01399e-06
 Reference value :  1.01707e-06
 Reference value :  1.01999e-06
 Reference value :  1.02258e-06
 Reference value :  1.02483e-06
 Reference value :  1.02720e-06
 Reference value :  1.02952e-06
 Reference value :  1.03175e-06
 Reference value :  1.03475e-06
 Reference value :  1.03768e-06
 Reference value :  1.04183e-06
 Reference value :  1.04750e-06
 Reference value :  1.05554e-06
 Reference value :  1.06834e-06
 Reference value :  1.08774e-06
 Reference value :  1.11920e-06
 Reference value :  1.16464e-06
 Reference value :  1.24761e-06
 Reference value :  1.25010e-06
 Reference value :  1.25011e-06
 Reference value :  1.25013e-06
 Reference value :  1.25017e-06
 Reference value :  1.25020e-06
 Reference value :  1.25020e-06
 Reference value :  1.25020e-06
 Reference value :  1.25020e-06
 Reference value :  1.25021e-06
 Reference value :  1.25022e-06
 Reference value :  1.25024e-06
 Reference value :  1.25029e-06
 Reference value :  1.25038e-06
 Reference value :  1.25056e-06
 Reference value :  1.25088e-06
 Reference value :  1.25145e-06
 Reference value :  1.25221e-06
 Reference value :  1.25298e-06
 Reference value :  1.25381e-06
 Reference value :  1.25489e-06
 Reference value :  1.25577e-06
 Reference value :  1.25683e-06
 Reference value :  1.25806e-06
 Reference value :  1.25923e-06
 Reference value :  1.26078e-06
 Reference value :  1.26364e-06
 Reference value :  1.26639e-06
 Reference value :  1.27051e-06
 Reference value :  1.27645e-06
 Reference value :  1.28835e-06
 Reference value :  1.31197e-06
 Reference value :  1.35374e-06
 Reference value :  1.43729e-06
 Reference value :  1.50000e-06
 Reference value :  1.50001e-06
 Reference value :  1.50003e-06
 Reference value :  1.50007e-06
 Reference value :  1.50010e-06
 Reference value :  1.50010e-06
 Reference value :  1.50011e-06
 Reference value :  1.50013e-06
 Reference value :  1.50016e-06
 Reference value :  1.50023e-06
 Reference value :  1.50036e-06
 Reference value :  1.50062e-06
 Reference value :  1.50093e-06
 Reference value :  1.50154e-06
 Reference value :  1.50214e-06
 Reference value :  1.50286e-06
 Reference value :  1.50373e-06
 Reference value :  1.50463e-06
 Reference value :  1.50560e-06
 Reference value :  1.50670e-06
 Reference value :  1.50787e-06
 Reference value :  1.50937e-06
 Reference value :  1.51055e-06
 Reference value :  1.51201e-06
 Reference value :  1.51358e-06
 Reference value :  1.51530e-06
 Reference value :  1.51700e-06
 Reference value :  1.51882e-06
 Reference value :  1.52086e-06
 Reference value :  1.52312e-06
 Reference value :  1.52764e-06
 Reference value :  1.53459e-06
 Reference value :  1.54807e-06
 Reference value :  1.57179e-06
 Reference value :  1.61923e-06
 Reference value :  1.71411e-06
 Reference value :  1.75010e-06
 Reference value :  1.75011e-06
 Reference value :  1.75013e-06
 Reference value :  1.75017e-06
 Reference value :  1.75020e-06
 Reference value :  1.75020e-06
 Reference value :  1.75020e-06
 Reference value :  1.75020e-06
 Reference value :  1.75021e-06
 Reference value :  1.75022e-06
 Reference value :  1.75024e-06
 Reference value :  1.75029e-06
 Reference value :  1.75038e-06
 Reference value :  1.75056e-06
 Reference value :  1.75088e-06
 Reference value :  1.75146e-06
 Reference value :  1.75222e-06
 Reference value :  1.75298e-06
 Reference value :  1.75382e-06
 Reference value :  1.75490e-06
 Reference value :  1.75577e-06
 Reference value :  1.75679e-06
 Reference value :  1.75772e-06
 Reference value :  1.75873e-06
 Reference value :  1.76005e-06
 Reference value :  1.76147e-06
 Reference value :  1.76431e-06
 Reference value :  1.76723e-06
 Reference value :  1.77230e-06
 Reference value :  1.77885e-06
 Reference value :  1.79194e-06
 Reference value :  1.81813e-06
 Reference value :  1.87051e-06
 Reference value :  1.97526e-06
 Reference value :  2.00000e-06
 Reference value :  2.00001e-06
 Reference value :  2.00003e-06
 Reference value :  2.00007e-06
 Reference value :  2.00010e-06
 Reference value :  2.00010e-06
 Reference value :  2.00011e-06
 Reference value :  2.00013e-06
 Reference value :  2.00016e-06
 Reference value :  2.00023e-06
 Reference value :  2.00036e-06
 Reference value :  2.00062e-06
 Reference value :  2.00093e-06
 Reference value :  2.00154e-06
 Reference value :  2.00213e-06
 Reference value :  2.00285e-06
 Reference value :  2.00372e-06
 Reference value :  2.00462e-06
 Reference value :  2.00563e-06
 Reference value :  2.00656e-06
 Reference value :  2.00752e-06
 Reference value :  2.00848e-06
 Reference value :  2.00953e-06
 Reference value :  2.01063e-06
 Reference value :  2.01210e-06
 Reference value :  2.01401e-06
 Reference value :  2.01686e-06
 Reference value :  2.02001e-06
 Reference value :  2.02258e-06
 Reference value :  2.02475e-06
 Reference value :  2.02683e-06
 Reference value :  2.02886e-06
 Reference value :  2.03097e-06
 Reference value :  2.03353e-06
 Reference value :  2.03616e-06
 Reference value :  2.03954e-06
 Reference value :  2.04424e-06
 Reference value :  2.04922e-06
 Reference value :  2.05471e-06
 Reference value :  2.05972e-06
 Reference value :  2.06379e-06
 Reference value :  2.06803e-06
 Reference value :  2.07208e-06
 Reference value :  2.07669e-06
 Reference value :  2.08236e-06
 Reference value :  2.08824e-06
 Reference value :  2.09402e-06
 Reference value :  2.10114e-06
 Reference value :  2.11505e-06
 Reference value :  2.13436e-06
 Reference value :  2.16799e-06
 Reference value :  2.22354e-06
 Reference value :  2.25010e-06
 Reference value :  2.25011e-06
 Reference value :  2.25013e-06
 Reference value :  2.25017e-06
 Reference value :  2.25020e-06
 Reference value :  2.25020e-06
 Reference value :  2.25020e-06
 Reference value :  2.25020e-06
 Reference value :  2.25021e-06
 Reference value :  2.25022e-06
 Reference value :  2.25024e-06
 Reference value :  2.25029e-06
 Reference value :  2.25038e-06
 Reference value :  2.25056e-06
 Reference value :  2.25088e-06
 Reference value :  2.25146e-06
 Reference value :  2.25222e-06
 Reference value :  2.25298e-06
 Reference value :  2.25382e-06
 Reference value :  2.25491e-06
 Reference value :  2.25574e-06
 Reference value :  2.25673e-06
 Reference value :  2.25794e-06
 Reference value :  2.25913e-06
 Reference value :  2.26058e-06
 Reference value :  2.26348e-06
 Reference value :  2.26610e-06
 Reference value :  2.27013e-06
 Reference value :  2.27584e-06
 Reference value :  2.28724e-06
 Reference value :  2.31005e-06
 Reference value :  2.35168e-06
 Reference value :  2.43495e-06
 Reference value :  2.50000e-06
 Reference value :  2.50001e-06
 Reference value :  2.50003e-06
 Reference value :  2.50007e-06
 Reference value :  2.50010e-06
 Reference value :  2.50010e-06
 Reference value :  2.50011e-06
 Reference value :  2.50013e-06
 Reference value :  2.50016e-06
 Reference value :  2.50023e-06
 Reference value :  2.50036e-06
 Reference value :  2.50062e-06
 Reference value :  2.50093e-06
 Reference value :  2.50154e-06
 Reference value :  2.50214e-06
 Reference value :  2.50282e-06
 Reference value :  2.50365e-06
 Reference value :  2.50453e-06
 Reference value :  2.50564e-06
 Reference value :  2.50667e-06
 Reference value :  2.50797e-06
 Reference value :  2.50949e-06
 Reference value :  2.51067e-06
 Reference value :  2.51213e-06
 Reference value :  2.51373e-06
 Reference value :  2.51547e-06
 Reference value :  2.51747e-06
 Reference value :  2.51928e-06
 Reference value :  2.52173e-06
 Reference value :  2.52430e-06
 Reference value :  2.52903e-06
 Reference value :  2.53640e-06
 Reference value :  2.54998e-06
 Reference value :  2.57689e-06
 Reference value :  2.62719e-06
 Reference value :  2.72779e-06
 Reference value :  2.75010e-06
 Reference value :  2.75011e-06
 Reference value :  2.75013e-06
 Reference value :  2.75017e-06
 Reference value :  2.75020e-06
 Reference value :  2.75020e-06
 Reference value :  2.75020e-06
 Reference value :  2.75020e-06
 Reference value :  2.75021e-06
 Reference value :  2.75022e-06
 Reference value :  2.75024e-06
 Reference value :  2.75029e-06
 Reference value :  2.75038e-06
 Reference value :  2.75056e-06
 Reference value :  2.75088e-06
 Reference value :  2.75146e-06
 Reference value :  2.75222e-06
 Reference value :  2.75298e-06
 Reference value :  2.75382e-06
 Reference value :  2.75491e-06
 Reference value :  2.75577e-06
 Reference value :  2.75680e-06
 Reference value :  2.75773e-06
 Reference value :  2.75874e-06
 Reference value :  2.75994e-06
 Reference value :  2.76133e-06
 Reference value :  2.76297e-06
 Reference value :  2.76469e-06
 Reference value :  2.76759e-06
 Reference value :  2.77069e-06
 Reference value :  2.77546e-06
 Reference value :  2.78223e-06
 Reference value :  2.79539e-06
 Reference value :  2.81463e-06
 Reference value :  2.84872e-06
 Reference value :  2.90722e-06
 Reference value :  3.00000e-06
 Reference value :  3.00001e-06
 Reference value :  3.00003e-06
 Reference value :  3.00007e-06
 Reference value :  3.00010e-06
 Reference value :  3.00010e-06
 Reference value :  3.00011e-06
 Reference value :  3.00013e-06
 Reference value :  3.00016e-06
 Reference value :  3.00023e-06
 Reference value :  3.00036e-06
 Reference value :  3.00062e-06
 Reference value :  3.00093e-06
 Reference value :  3.00154e-06
 Reference value :  3.00213e-06
 Reference value :  3.00285e-06
 Reference value :  3.00372e-06
 Reference value :  3.00461e-06
 Reference value :  3.00561e-06
 Reference value :  3.00650e-06
 Reference value :  3.00744e-06
 Reference value :  3.00836e-06
 Reference value :  3.00938e-06
 Reference value :  3.01046e-06
 Reference value :  3.01190e-06
 Reference value :  3.01371e-06
 Reference value :  3.01624e-06
 Reference value :  3.01809e-06
 Reference value :  3.02015e-06
 Reference value :  3.02237e-06
 Reference value :  3.02401e-06
 Reference value :  3.02559e-06
 Reference value :  3.02739e-06
 Reference value :  3.02924e-06
 Reference value :  3.03116e-06
 Reference value :  3.03342e-06
 Reference value :  3.03647e-06
 Reference value :  3.03982e-06
 Reference value :  3.04607e-06
 Reference value :  3.05495e-06
 Reference value :  3.06933e-06
 Reference value :  3.09327e-06
 Reference value :  3.13729e-06
 Reference value :  3.20831e-06
 Reference value :  3.25010e-06
 Reference value :  3.25011e-06
 Reference value :  3.25013e-06
 Reference value :  3.25017e-06
 Reference value :  3.25020e-06
 Reference value :  3.25020e-06
 Reference value :  3.25020e-06
 Reference value :  3.25020e-06
 Reference value :  3.25021e-06
 Reference value :  3.25022e-06
 Reference value :  3.25024e-06
 Reference value :  3.25029e-06
 Reference value :  3.25038e-06
 Reference value :  3.25056e-06
 Reference value :  3.25088e-06
 Reference value :  3.25146e-06
 Reference value :  3.25222e-06
 Reference value :  3.25299e-06
 Reference value :  3.25383e-06
 Reference value :  3.25491e-06
 Reference value :  3.25576e-06
 Reference value :  3.25677e-06
 Reference value :  3.25802e-06
 Reference value :  3.25919e-06
 Reference value :  3.26069e-06
 Reference value :  3.26334e-06
 Reference value :  3.26606e-06
 Reference value :  3.27000e-06
 Reference value :  3.27585e-06
 Reference value :  3.28755e-06
 Reference value :  3.31087e-06
 Reference value :  3.35265e-06
 Reference value :  3.43622e-06
 Reference value :  3.50000e-06
 Reference value :  3.50001e-06
 Reference value :  3.50003e-06
 Reference value :  3.50007e-06
 Reference value :  3.50010e-06
 Reference value :  3.50010e-06
 Reference value :  3.50011e-06
 Reference value :  3.50013e-06
 Reference value :  3.50016e-06
 Reference value :  3.50023e-06
 Reference value :  3.50036e-06
 Reference value :  3.50062e-06
 Reference value :  3.50093e-06
 Reference value :  3.50154e-06
 Reference value :  3.50214e-06
 Reference value :  3.50281e-06
 Reference value :  3.50365e-06
 Reference value :  3.50453e-06
 Reference value :  3.50563e-06
 Reference value :  3.50664e-06
 Reference value :  3.50796e-06
 Reference value :  3.50932e-06
 Reference value :  3.51048e-06
 Reference value :  3.51199e-06
 Reference value :  3.51361e-06
 Reference value :  3.51533e-06
 Reference value :  3.51730e-06
 Reference value :  3.51916e-06
 Reference value :  3.52212e-06
 Reference value :  3.52496e-06
 Reference value :  3.53065e-06
 Reference value :  3.53971e-06
 Reference value :  3.55576e-06
 Reference value :  3.58788e-06
 Reference value :  3.64760e-06
 Reference value :  3.75010e-06
 Reference value :  3.75011e-06
 Reference value :  3.75013e-06
 Reference value :  3.75017e-06
 Reference value :  3.75020e-06
 Reference value :  3.75020e-06
 Reference value :  3.75020e-06
 Reference value :  3.75020e-06
 Reference value :  3.75021e-06
 Reference value :  3.75022e-06
 Reference value :  3.75024e-06
 Reference value :  3.75029e-06
 Reference value :  3.75038e-06
 Reference value :  3.75056e-06
 Reference value :  3.75088e-06
 Reference value :  3.75146e-06
 Reference value :  3.75222e-06
 Reference value :  3.75298e-06
 Reference value :  3.75383e-06
 Reference value :  3.75492e-06
 Reference value :  3.75578e-06
 Reference value :  3.75680e-06
 Reference value :  3.75773e-06
 Reference value :  3.75874e-06
 Reference value :  3.75994e-06
 Reference value :  3.76133e-06
 Reference value :  3.76295e-06
 Reference value :  3.76466e-06
 Reference value :  3.76755e-06
 Reference value :  3.77064e-06
 Reference value :  3.77539e-06
 Reference value :  3.78211e-06
 Reference value :  3.79507e-06
 Reference value :  3.81398e-06
 Reference value :  3.84731e-06
 Reference value :  3.90679e-06
 Reference value :  4.00000e-06
 Reference value :  4.00001e-06
 Reference value :  4.00003e-06
 Reference value :  4.00007e-06
 Reference value :  4.00010e-06
 Reference value :  4.00010e-06
 Reference value :  4.00011e-06
 Reference value :  4.00013e-06
 Reference value :  4.00016e-06
 Reference value :  4.00023e-06
 Reference value :  4.00036e-06
 Reference value :  4.00062e-06
 Reference value :  4.00093e-06
 Reference value :  4.00154e-06
 Reference value :  4.00213e-06
 Reference value :  4.00285e-06
 Reference value :  4.00372e-06
 Reference value :  4.00461e-06
 Reference value :  4.00561e-06
 Reference value :  4.00649e-06
 Reference value :  4.00744e-06
 Reference value :  4.00835e-06
 Reference value :  4.00938e-06
 Reference value :  4.01046e-06
 Reference value :  4.01188e-06
 Reference value :  4.01378e-06
 Reference value :  4.01568e-06
 Reference value :  4.01754e-06
 Reference value :  4.01952e-06
 Reference value :  4.02159e-06
 Reference value :  4.02333e-06
 Reference value :  4.02507e-06
 Reference value :  4.02704e-06
 Reference value :  4.02895e-06
 Reference value :  4.03082e-06
 Reference value :  4.03322e-06
 Reference value :  4.03615e-06
 Reference value :  4.03940e-06
 Reference value :  4.04472e-06
 Reference value :  4.05240e-06
 Reference value :  4.06461e-06
 Reference value :  4.07721e-06
 Reference value :  4.08903e-06
 Reference value :  4.10050e-06
 Reference value :  4.10638e-06
 Reference value :  4.11176e-06
 Reference value :  4.11784e-06
 Reference value :  4.12562e-06
 Reference value :  4.13653e-06
 Reference value :  4.15065e-06
 Reference value :  4.17120e-06
 Reference value :  4.19953e-06
 Reference value :  4.24012e-06
 Reference value :  4.25010e-06
 Reference value :  4.25011e-06
 Reference value :  4.25013e-06
 Reference value :  4.25017e-06
 Reference value :  4.25020e-06
 Reference value :  4.25020e-06
 Reference value :  4.25020e-06
 Reference value :  4.25020e-06
 Reference value :  4.25021e-06
 Reference value :  4.25022e-06
 Reference value :  4.25024e-06
 Reference value :  4.25029e-06
 Reference value :  4.25038e-06
 Reference value :  4.25056e-06
 Reference value :  4.25088e-06
 Reference value :  4.25145e-06
 Reference value :  4.25222e-06
 Reference value :  4.25298e-06
 Reference value :  4.25382e-06
 Reference value :  4.25491e-06
 Reference value :  4.25579e-06
 Reference value :  4.25682e-06
 Reference value :  4.25810e-06
 Reference value :  4.25927e-06
 Reference value :  4.26082e-06
 Reference value :  4.26378e-06
 Reference value :  4.26651e-06
 Reference value :  4.27072e-06
 Reference value :  4.27667e-06
 Reference value :  4.28858e-06
 Reference value :  4.31205e-06
 Reference value :  4.35313e-06
 Reference value :  4.43530e-06
 Reference value :  4.50000e-06
 Reference value :  4.50001e-06
 Reference value :  4.50003e-06
 Reference value :  4.50007e-06
 Reference value :  4.50010e-06
 Reference value :  4.50010e-06
 Reference value :  4.50011e-06
 Reference value :  4.50013e-06
 Reference value :  4.50016e-06
 Reference value :  4.50023e-06
 Reference value :  4.50036e-06
 Reference value :  4.50062e-06
 Reference value :  4.50093e-06
 Reference value :  4.50154e-06
 Reference value :  4.50214e-06
 Reference value :  4.50286e-06
 Reference value :  4.50373e-06
 Reference value :  4.50462e-06
 Reference value :  4.50559e-06
 Reference value :  4.50666e-06
 Reference value :  4.50783e-06
 Reference value :  4.50921e-06
 Reference value :  4.51034e-06
 Reference value :  4.51176e-06
 Reference value :  4.51329e-06
 Reference value :  4.51496e-06
 Reference value :  4.51691e-06
 Reference value :  4.51880e-06
 Reference value :  4.52129e-06
 Reference value :  4.52482e-06
 Reference value :  4.53094e-06
 Reference value :  4.54213e-06
 Reference value :  4.55715e-06
 Reference value :  4.57723e-06
 Reference value :  4.59013e-06
 Reference value :  4.60427e-06
 Reference value :  4.62598e-06
 Reference value :  4.64899e-06
 Reference value :  4.68625e-06
 Reference value :  4.72302e-06
 Reference value :  4.75010e-06
 Reference value :  4.75011e-06
 Reference value :  4.75013e-06
 Reference value :  4.75017e-06
 Reference value :  4.75020e-06
 Reference value :  4.75020e-06
 Reference value :  4.75020e-06
 Reference value :  4.75020e-06
 Reference value :  4.75021e-06
 Reference value :  4.75022e-06
 Reference value :  4.75024e-06
 Reference value :  4.75029e-06
 Reference value :  4.75038e-06
 Reference value :  4.75056e-06
 Reference value :  4.75088e-06
 Reference value :  4.75145e-06
 Reference value :  4.75222e-06
 Reference value :  4.75298e-06
 Reference value :  4.75382e-06
 Reference value :  4.75491e-06
 Reference value :  4.75578e-06
 Reference value :  4.75681e-06
 Reference value :  4.75775e-06
 Reference value :  4.75877e-06
 Reference value :  4.75996e-06
 Reference value :  4.76135e-06
 Reference value :  4.76298e-06
 Reference value :  4.76469e-06
 Reference value :  4.76760e-06
 Reference value :  4.77071e-06
 Reference value :  4.77547e-06
 Reference value :  4.78224e-06
 Reference value :  4.79527e-06
 Reference value :  4.81433e-06
 Reference value :  4.84796e-06
 Reference value :  4.90328e-06
 Reference value :  5.00000e-06
 Reference value :  5.00001e-06
 Reference value :  5.00003e-06
 Reference value :  5.00007e-06
 Reference value :  5.00010e-06
 Reference value :  5.00010e-06
 Reference value :  5.00011e-06
 Reference value :  5.00013e-06
 Reference value :  5.00016e-06
 Reference value :  5.00023e-06
 Reference value :  5.00036e-06
 Reference value :  5.00062e-06
 Reference value :  5.00092e-06
 Reference value :  5.00154e-06
 Reference value :  5.00213e-06
 Reference value :  5.00285e-06
 Reference value :  5.00371e-06
 Reference value :  5.00461e-06
 Reference value :  5.00561e-06
 Reference value :  5.00649e-06
 Reference value :  5.00744e-06
 Reference value :  5.00833e-06
 Reference value :  5.00937e-06
 Reference value :  5.01045e-06
 Reference value :  5.01181e-06
 Reference value :  5.01377e-06
 Reference value :  5.01537e-06
 Reference value :  5.01706e-06
 Reference value :  5.01875e-06
 Reference value :  5.02066e-06
 Reference value :  5.02240e-06
 Reference value :  5.02374e-06
 Reference value :  5.02504e-06
 Reference value :  5.02659e-06
 Reference value :  5.02823e-06
 Reference value :  5.02978e-06
 Reference value :  5.03182e-06
 Reference value :  5.03323e-06
 Reference value :  5.03480e-06
 Reference value :  5.03657e-06
 Reference value :  5.03845e-06
 Reference value :  5.04066e-06
 Reference value :  5.04508e-06
 Reference value :  5.05206e-06
 Reference value :  5.06467e-06
 Reference value :  5.08090e-06
 Reference value :  5.09770e-06
 Reference value :  5.11745e-06
 Reference value :  5.14228e-06
 Reference value :  5.18562e-06
 Reference value :  5.25010e-06
 Reference value :  5.25011e-06
 Reference value :  5.25013e-06
 Reference value :  5.25017e-06
 Reference value :  5.25020e-06
 Reference value :  5.25020e-06
 Reference value :  5.25020e-06
 Reference value :  5.25020e-06
 Reference value :  5.25021e-06
 Reference value :  5.25022e-06
 Reference value :  5.25024e-06
 Reference value :  5.25029e-06
 Reference value :  5.25038e-06
 Reference value :  5.25056e-06
 Reference value :  5.25088e-06
 Reference value :  5.25145e-06
 Reference value :  5.25222e-06
 Reference value :  5.25299e-06
 Reference value :  5.25383e-06
 Reference value :  5.25491e-06
 Reference value :  5.25579e-06
 Reference value :  5.25683e-06
 Reference value :  5.25811e-06
 Reference value :  5.25926e-06
 Reference value :  5.26082e-06
 Reference value :  5.26382e-06
 Reference value :  5.26655e-06
 Reference value :  5.27080e-06
 Reference value :  5.27678e-06
 Reference value :  5.28873e-06
 Reference value :  5.31225e-06
 Reference value :  5.35335e-06
 Reference value :  5.43556e-06
 Reference value :  5.50000e-06
 Reference value :  5.50001e-06
 Reference value :  5.50003e-06
 Reference value :  5.50007e-06
 Reference value :  5.50010e-06
 Reference value :  5.50010e-06
 Reference value :  5.50011e-06
 Reference value :  5.50013e-06
 Reference value :  5.50016e-06
 Reference value :  5.50023e-06
 Reference value :  5.50036e-06
 Reference value :  5.50062e-06
 Reference value :  5.50093e-06
 Reference value :  5.50154e-06
 Reference value :  5.50214e-06
 Reference value :  5.50286e-06
 Reference value :  5.50373e-06
 Reference value :  5.50463e-06
 Reference value :  5.50560e-06
 Reference value :  5.50671e-06
 Reference value :  5.50788e-06
 Reference value :  5.50939e-06
 Reference value :  5.51053e-06
 Reference value :  5.51191e-06
 Reference value :  5.51345e-06
 Reference value :  5.51513e-06
 Reference value :  5.51686e-06
 Reference value :  5.51873e-06
 Reference value :  5.52076e-06
 Reference value :  5.52482e-06
 Reference value :  5.53294e-06
 Reference value :  5.54446e-06
 Reference value :  5.56750e-06
 Reference value :  5.61359e-06
 Reference value :  5.70575e-06
 Reference value :  5.75010e-06
 Reference value :  5.75011e-06
 Reference value :  5.75013e-06
 Reference value :  5.75017e-06
 Reference value :  5.75020e-06
 Reference value :  5.75020e-06
 Reference value :  5.75020e-06
 Reference value :  5.75020e-06
 Reference value :  5.75021e-06
 Reference value :  5.75022e-06
 Reference value :  5.75024e-06
 Reference value :  5.75029e-06
 Reference value :  5.75038e-06
 Reference value :  5.75056e-06
 Reference value :  5.75088e-06
 Reference value :  5.75146e-06
 Reference value :  5.75222e-06
 Reference value :  5.75299e-06
 Reference value :  5.75383e-06
 Reference value :  5.75491e-06
 Reference value :  5.75577e-06
 Reference value :  5.75679e-06
 Reference value :  5.75772e-06
 Reference value :  5.75873e-06
 Reference value :  5.76004e-06
 Reference value :  5.76145e-06
 Reference value :  5.76427e-06
 Reference value :  5.76720e-06
 Reference value :  5.77223e-06
 Reference value :  5.77874e-06
 Reference value :  5.79177e-06
 Reference value :  5.81781e-06
 Reference value :  5.86991e-06
 Reference value :  5.97411e-06
 Reference value :  6.00000e-06
 Reference value :  6.00001e-06
 Reference value :  6.00003e-06
 Reference value :  6.00007e-06
 Reference value :  6.00010e-06
 Reference value :  6.00010e-06
 Reference value :  6.00011e-06
 Reference value :  6.00013e-06
 Reference value :  6.00016e-06
 Reference value :  6.00023e-06
 Reference value :  6.00036e-06
 Reference value :  6.00062e-06
 Reference value :  6.00093e-06
 Reference value :  6.00154e-06
 Reference value :  6.00213e-06
 Reference value :  6.00285e-06
 Reference value :  6.00372e-06
 Reference value :  6.00462e-06
 Reference value :  6.00563e-06
 Reference value :  6.00666e-06
 Reference value :  6.00759e-06
 Reference value :  6.00844e-06
 Reference value :  6.00943e-06
 Reference value :  6.01062e-06
 Reference value :  6.01191e-06
 Reference value :  6.01410e-06
 Reference value :  6.01715e-06
 Reference value :  6.02015e-06
 Reference value :  6.02279e-06
 Reference value :  6.02488e-06
 Reference value :  6.02685e-06
 Reference value :  6.02871e-06
 Reference value :  6.03072e-06
 Reference value :  6.03308e-06
 Reference value :  6.03569e-06
 Reference value :  6.03892e-06
 Reference value :  6.04356e-06
 Reference value :  6.05062e-06
 Reference value :  6.05945e-06
 Reference value :  6.06907e-06
 Reference value :  6.08168e-06
 Reference value :  6.09325e-06
 Reference value :  6.10958e-06
 Reference value :  6.12669e-06
 Reference value :  6.14346e-06
 Reference value :  6.15871e-06
 Reference value :  6.17482e-06
 Reference value :  6.19438e-06
 Reference value :  6.23351e-06
 Reference value :  6.25010e-06
 Reference value :  6.25011e-06
 Reference value :  6.25013e-06
 Reference value :  6.25017e-06
 Reference value :  6.25020e-06
 Reference value :  6.25020e-06
 Reference value :  6.25020e-06
 Reference value :  6.25020e-06
 Reference value :  6.25021e-06
 Reference value :  6.25022e-06
 Reference value :  6.25024e-06
 Reference value :  6.25029e-06
 Reference value :  6.25038e-06
 Reference value :  6.25056e-06
 Reference value :  6.25088e-06
 Reference value :  6.25145e-06
 Reference value :  6.25222e-06
 Reference value :  6.25299e-06
 Reference value :  6.25383e-06
 Reference value :  6.25491e-06
 Reference value :  6.25579e-06
 Reference value :  6.25683e-06
 Reference value :  6.25812e-06
 Reference value :  6.25928e-06
 Reference value :  6.26083e-06
 Reference value :  6.26388e-06
 Reference value :  6.26662e-06
 Reference value :  6.27090e-06
 Reference value :  6.27690e-06
 Reference value :  6.28889e-06
 Reference value :  6.31249e-06
 Reference value :  6.35358e-06
 Reference value :  6.43577e-06
 Reference value :  6.50000e-06
 Reference value :  6.50001e-06
 Reference value :  6.50003e-06
 Reference value :  6.50007e-06
 Reference value :  6.50010e-06
 Reference value :  6.50010e-06
 Reference value :  6.50011e-06
 Reference value :  6.50013e-06
 Reference value :  6.50016e-06
 Reference value :  6.50023e-06
 Reference value :  6.50036e-06
 Reference value :  6.50062e-06
 Reference value :  6.50093e-06
 Reference value :  6.50154e-06
 Reference value :  6.50214e-06
 Reference value :  6.50286e-06
 Reference value :  6.50373e-06
 Reference value :  6.50463e-06
 Reference value :  6.50560e-06
 Reference value :  6.50668e-06
 Reference value :  6.50786e-06
 Reference value :  6.50923e-06
 Reference value :  6.51040e-06
 Reference value :  6.51190e-06
 Reference value :  6.51351e-06
 Reference value :  6.51521e-06
 Reference value :  6.51710e-06
 Reference value :  6.51913e-06
 Reference value :  6.52125e-06
 Reference value :  6.52548e-06
 Reference value :  6.53368e-06
 Reference value :  6.54568e-06
 Reference value :  6.56968e-06
 Reference value :  6.61769e-06
 Reference value :  6.71369e-06
 Reference value :  6.75010e-06
 Reference value :  6.75011e-06
 Reference value :  6.75013e-06
 Reference value :  6.75017e-06
 Reference value :  6.75020e-06
 Reference value :  6.75020e-06
 Reference value :  6.75020e-06
 Reference value :  6.75020e-06
 Reference value :  6.75021e-06
 Reference value :  6.75022e-06
 Reference value :  6.75024e-06
 Reference value :  6.75029e-06
 Reference value :  6.75038e-06
 Reference value :  6.75056e-06
 Reference value :  6.75088e-06
 Reference value :  6.75146e-06
 Reference value :  6.75222e-06
 Reference value :  6.75299e-06
 Reference value :  6.75383e-06
 Reference value :  6.75492e-06
 Reference value :  6.75577e-06
 Reference value :  6.75679e-06
 Reference value :  6.75772e-06
 Reference value :  6.75873e-06
 Reference value :  6.76004e-06
 Reference value :  6.76145e-06
 Reference value :  6.76427e-06
 Reference value :  6.76719e-06
 Reference value :  6.77222e-06
 Reference value :  6.77873e-06
 Reference value :  6.79175e-06
 Reference value :  6.81779e-06
 Reference value :  6.86986e-06
 Reference value :  6.97401e-06
 Reference value :  7.00000e-06
 Reference value :  7.00001e-06
 Reference value :  7.00003e-06
 Reference value :  7.00007e-06
 Reference value :  7.00010e-06
 Reference value :  7.00010e-06
 Reference value :  7.00011e-06
 Reference value :  7.00013e-06
 Reference value :  7.00016e-06
 Reference value :  7.00023e-06
 Reference value :  7.00036e-06
 Reference value :  7.00062e-06
 Reference value :  7.00093e-06
 Reference value :  7.00154e-06
 Reference value :  7.00213e-06
 Reference value :  7.00285e-06
 Reference value :  7.00372e-06
 Reference value :  7.00462e-06
 Reference value :  7.00563e-06
 Reference value :  7.00655e-06
 Reference value :  7.00752e-06
 Reference value :  7.00839e-06
 Reference value :  7.00940e-06
 Reference value :  7.01052e-06
 Reference value :  7.01183e-06
 Reference value :  7.01389e-06
 Reference value :  7.01679e-06
 Reference value :  7.02016e-06
 Reference value :  7.02278e-06
 Reference value :  7.02499e-06
 Reference value :  7.02710e-06
 Reference value :  7.02913e-06
 Reference value :  7.03125e-06
 Reference value :  7.03382e-06
 Reference value :  7.03649e-06
 Reference value :  7.03990e-06
 Reference value :  7.04469e-06
 Reference value :  7.05040e-06
 Reference value :  7.05902e-06
 Reference value :  7.07091e-06
 Reference value :  7.09412e-06
 Reference value :  7.11547e-06
 Reference value :  7.14819e-06
 Reference value :  7.18025e-06
 Reference value :  7.21478e-06
 Reference value :  7.25010e-06
 Reference value :  7.25011e-06
 Reference value :  7.25013e-06
 Reference value :  7.25017e-06
 Reference value :  7.25020e-06
 Reference value :  7.25020e-06
 Reference value :  7.25020e-06
 Reference value :  7.25020e-06
 Reference value :  7.25021e-06
 Reference value :  7.25022e-06
 Reference value :  7.25024e-06
 Reference value :  7.25029e-06
 Reference value :  7.25038e-06
 Reference value :  7.25056e-06
 Reference value :  7.25088e-06
 Reference value :  7.25146e-06
 Reference value :  7.25223e-06
 Reference value :  7.25299e-06
 Reference value :  7.25384e-06
 Reference value :  7.25492e-06
 Reference value :  7.25578e-06
 Reference value :  7.25678e-06
 Reference value :  7.25801e-06
 Reference value :  7.25921e-06
 Reference value :  7.26067e-06
 Reference value :  7.26361e-06
 Reference value :  7.26627e-06
 Reference value :  7.27040e-06
 Reference value :  7.27621e-06
 Reference value :  7.28782e-06
 Reference value :  7.31103e-06
 Reference value :  7.35213e-06
 Reference value :  7.43432e-06
 Reference value :  7.50000e-06
 Reference value :  7.50001e-06
 Reference value :  7.50003e-06
 Reference value :  7.50007e-06
 Reference value :  7.50010e-06
 Reference value :  7.50010e-06
 Reference value :  7.50011e-06
 Reference value :  7.50013e-06
 Reference value :  7.50016e-06
 Reference value :  7.50023e-06
 Reference value :  7.50036e-06
 Reference value :  7.50061e-06
 Reference value :  7.50092e-06
 Reference value :  7.50155e-06
 Reference value :  7.50215e-06
 Reference value :  7.50289e-06
 Reference value :  7.50375e-06
 Reference value :  7.50466e-06
 Reference value :  7.50562e-06
 Reference value :  7.50674e-06
 Reference value :  7.50792e-06
 Reference value :  7.50941e-06
 Reference value :  7.51059e-06
 Reference value :  7.51205e-06
 Reference value :  7.51363e-06
 Reference value :  7.51535e-06
 Reference value :  7.51730e-06
 Reference value :  7.51930e-06
 Reference value :  7.52165e-06
 Reference value :  7.52599e-06
 Reference value :  7.53281e-06
 Reference value :  7.54520e-06
 Reference value :  7.56822e-06
 Reference value :  7.61425e-06
 Reference value :  7.70630e-06
 Reference value :  7.75010e-06
 Reference value :  7.75011e-06
 Reference value :  7.75013e-06
 Reference value :  7.75017e-06
 Reference value :  7.75020e-06
 Reference value :  7.75020e-06
 Reference value :  7.75020e-06
 Reference value :  7.75020e-06
 Reference value :  7.75021e-06
 Reference value :  7.75022e-06
 Reference value :  7.75024e-06
 Reference value :  7.75029e-06
 Reference value :  7.75038e-06
 Reference value :  7.75056e-06
 Reference value :  7.75089e-06
 Reference value :  7.75147e-06
 Reference value :  7.75223e-06
 Reference value :  7.75299e-06
 Reference value :  7.75384e-06
 Reference value :  7.75493e-06
 Reference value :  7.75576e-06
 Reference value :  7.75675e-06
 Reference value :  7.75769e-06
 Reference value :  7.75869e-06
 Reference value :  7.76001e-06
 Reference value :  7.76142e-06
 Reference value :  7.76425e-06
 Reference value :  7.76718e-06
 Reference value :  7.77225e-06
 Reference value :  7.77880e-06
 Reference value :  7.79191e-06
 Reference value :  7.81812e-06
 Reference value :  7.87054e-06
 Reference value :  7.97539e-06
 Reference value :  8.00000e-06
 Reference value :  8.00001e-06
 Reference value :  8.00003e-06
 Reference value :  8.00007e-06
 Reference value :  8.00010e-06
 Reference value :  8.00010e-06
 Reference value :  8.00011e-06
 Reference value :  8.00013e-06
 Reference value :  8.00016e-06
 Reference value :  8.00023e-06
 Reference value :  8.00036e-06
 Reference value :  8.00061e-06
 Reference value :  8.00092e-06
 Reference value :  8.00155e-06
 Reference value :  8.00215e-06
 Reference value :  8.00288e-06
 Reference value :  8.00374e-06
 Reference value :  8.00465e-06
 Reference value :  8.00566e-06
 Reference value :  8.00658e-06
 Reference value :  8.00754e-06
 Reference value :  8.00842e-06
 Reference value :  8.00944e-06
 Reference value :  8.01055e-06
 Reference value :  8.01187e-06
 Reference value :  8.01391e-06
 Reference value :  8.01680e-06
 Reference value :  8.02060e-06
 Reference value :  8.02341e-06
 Reference value :  8.02658e-06
 Reference value :  8.03014e-06
 Reference value :  8.03409e-06
 Reference value :  8.04026e-06
 Reference value :  8.04843e-06
 Reference value :  8.06164e-06
 Reference value :  8.08264e-06
 Reference value :  8.11641e-06
 Reference value :  8.17360e-06
 Reference value :  8.25010e-06
 Reference value :  8.25011e-06
 Reference value :  8.25013e-06
 Reference value :  8.25017e-06
 Reference value :  8.25020e-06
 Reference value :  8.25020e-06
 Reference value :  8.25020e-06
 Reference value :  8.25020e-06
 Reference value :  8.25021e-06
 Reference value :  8.25022e-06
 Reference value :  8.25024e-06
 Reference value :  8.25029e-06
 Reference value :  8.25038e-06
 Reference value :  8.25056e-06
 Reference value :  8.25091e-06
 Reference value :  8.25163e-06
 Reference value :  8.25235e-06
 Reference value :  8.25309e-06
 Reference value :  8.25394e-06
 Reference value :  8.25510e-06
 Reference value :  8.25625e-06
 Reference value :  8.25784e-06
 Reference value :  8.25967e-06
 Reference value :  8.26149e-06
 Reference value :  8.26444e-06
 Reference value :  8.26763e-06
 Reference value :  8.27270e-06
 Reference value :  8.28014e-06
 Reference value :  8.29503e-06
 Reference value :  8.32479e-06
 Reference value :  8.38433e-06
 Reference value :  8.50000e-06
 Reference value :  8.50000e-06
 Reference value :  8.50000e-06
 Reference value :  8.50000e-06
 Reference value :  8.50000e-06
 Reference value :  8.50000e-06
 Reference value :  8.50000e-06
 Reference value :  8.50000e-06
 Reference value :  8.50001e-06
 Reference value :  8.50001e-06
 Reference value :  8.50002e-06
 Reference value :  8.50004e-06
 Reference value :  8.50008e-06
 Reference value :  8.50010e-06
 Reference value :  8.50010e-06
 Reference value :  8.50011e-06
 Reference value :  8.50012e-06
 Reference value :  8.50014e-06
 Reference value :  8.50018e-06
 Reference value :  8.50026e-06
 Reference value :  8.50042e-06
 Reference value :  8.50075e-06
 Reference value :  8.50116e-06
 Reference value :  8.50193e-06
 Reference value :  8.50277e-06
 Reference value :  8.50358e-06
 Reference value :  8.50447e-06
 Reference value :  8.50531e-06
 Reference value :  8.50630e-06
 Reference value :  8.50745e-06
 Reference value :  8.50868e-06
 Reference value :  8.51114e-06
 Reference value :  8.51271e-06
 Reference value :  8.51448e-06
 Reference value :  8.51668e-06
 Reference value :  8.51907e-06
 Reference value :  8.52218e-06
 Reference value :  8.52773e-06
 Reference value :  8.53336e-06
 Reference value :  8.53911e-06
 Reference value :  8.54322e-06
 Reference value :  8.54692e-06
 Reference value :  8.55084e-06
 Reference value :  8.55390e-06
 Reference value :  8.55656e-06
 Reference value :  8.55904e-06
 Reference value :  8.56162e-06
 Reference value :  8.56535e-06
 Reference value :  8.56915e-06
 Reference value :  8.57322e-06
 Reference value :  8.58067e-06
 Reference value :  8.58758e-06
 Reference value :  8.59930e-06
 Reference value :  8.61175e-06
 Reference value :  8.63472e-06
 Reference value :  8.66379e-06
 Reference value :  8.71859e-06
 Reference value :  8.75010e-06
 Reference value :  8.75011e-06
 Reference value :  8.75013e-06
 Reference value :  8.75017e-06
 Reference value :  8.75020e-06
 Reference value :  8.75020e-06
 Reference value :  8.75020e-06
 Reference value :  8.75020e-06
 Reference value :  8.75021e-06
 Reference value :  8.75022e-06
 Reference value :  8.75024e-06
 Reference value :  8.75029e-06
 Reference value :  8.75038e-06
 Reference value :  8.75056e-06
 Reference value :  8.75091e-06
 Reference value :  8.75154e-06
 Reference value :  8.75227e-06
 Reference value :  8.75303e-06
 Reference value :  8.75386e-06
 Reference value :  8.75501e-06
 Reference value :  8.75591e-06
 Reference value :  8.75691e-06
 Reference value :  8.75812e-06
 Reference value :  8.75937e-06
 Reference value :  8.76073e-06
 Reference value :  8.76346e-06
 Reference value :  8.76621e-06
 Reference value :  8.77030e-06
 Reference value :  8.77620e-06
 Reference value :  8.78799e-06
 Reference value :  8.81156e-06
 Reference value :  8.85740e-06
 Reference value :  8.93101e-06
 Reference value :  9.00000e-06
 Reference value :  9.00001e-06
 Reference value :  9.00003e-06
 Reference value :  9.00007e-06
 Reference value :  9.00010e-06
 Reference value :  9.00010e-06
 Reference value :  9.00011e-06
 Reference value :  9.00013e-06
 Reference value :  9.00016e-06
 Reference value :  9.00023e-06
 Reference value :  9.00036e-06
 Reference value :  9.00060e-06
 Reference value :  9.00093e-06
 Reference value :  9.00158e-06
 Reference value :  9.00218e-06
 Reference value :  9.00291e-06
 Reference value :  9.00378e-06
 Reference value :  9.00476e-06
 Reference value :  9.00568e-06
 Reference value :  9.00678e-06
 Reference value :  9.00797e-06
 Reference value :  9.00934e-06
 Reference value :  9.01141e-06
 Reference value :  9.01383e-06
 Reference value :  9.01613e-06
 Reference value :  9.01850e-06
 Reference value :  9.02100e-06
 Reference value :  9.02349e-06
 Reference value :  9.02662e-06
 Reference value :  9.03206e-06
 Reference value :  9.03975e-06
 Reference value :  9.05227e-06
 Reference value :  9.07731e-06
 Reference value :  9.12739e-06
 Reference value :  9.22707e-06
 Reference value :  9.25010e-06
 Reference value :  9.25011e-06
 Reference value :  9.25013e-06
 Reference value :  9.25017e-06
 Reference value :  9.25020e-06
 Reference value :  9.25020e-06
 Reference value :  9.25020e-06
 Reference value :  9.25020e-06
 Reference value :  9.25021e-06
 Reference value :  9.25022e-06
 Reference value :  9.25024e-06
 Reference value :  9.25029e-06
 Reference value :  9.25038e-06
 Reference value :  9.25056e-06
 Reference value :  9.25091e-06
 Reference value :  9.25153e-06
 Reference value :  9.25228e-06
 Reference value :  9.25303e-06
 Reference value :  9.25389e-06
 Reference value :  9.25499e-06
 Reference value :  9.25585e-06
 Reference value :  9.25685e-06
 Reference value :  9.25782e-06
 Reference value :  9.25883e-06
 Reference value :  9.26021e-06
 Reference value :  9.26169e-06
 Reference value :  9.26463e-06
 Reference value :  9.26759e-06
 Reference value :  9.27297e-06
 Reference value :  9.27990e-06
 Reference value :  9.29375e-06
 Reference value :  9.32144e-06
 Reference value :  9.37684e-06
 Reference value :  9.48762e-06
 Reference value :  9.50000e-06
 Reference value :  9.50001e-06
 Reference value :  9.50003e-06
 Reference value :  9.50007e-06
 Reference value :  9.50010e-06
 Reference value :  9.50010e-06
 Reference value :  9.50011e-06
 Reference value :  9.50013e-06
 Reference value :  9.50016e-06
 Reference value :  9.50023e-06
 Reference value :  9.50036e-06
 Reference value :  9.50060e-06
 Reference value :  9.50092e-06
 Reference value :  9.50157e-06
 Reference value :  9.50217e-06
 Reference value :  9.50290e-06
 Reference value :  9.50377e-06
 Reference value :  9.50469e-06
 Reference value :  9.50568e-06
 Reference value :  9.50660e-06
 Reference value :  9.50756e-06
 Reference value :  9.50847e-06
 Reference value :  9.50954e-06
 Reference value :  9.51062e-06
 Reference value :  9.51202e-06
 Reference value :  9.51399e-06
 Reference value :  9.51707e-06
 Reference value :  9.52000e-06
 Reference value :  9.52258e-06
 Reference value :  9.52478e-06
 Reference value :  9.52717e-06
 Reference value :  9.52944e-06
 Reference value :  9.53166e-06
 Reference value :  9.53464e-06
 Reference value :  9.53749e-06
 Reference value :  9.54150e-06
 Reference value :  9.54688e-06
 Reference value :  9.55447e-06
 Reference value :  9.56643e-06
 Reference value :  9.58440e-06
 Reference value :  9.61334e-06
 Reference value :  9.65694e-06
 Reference value :  9.73173e-06
 Reference value :  9.75010e-06
 Reference value :  9.75011e-06
 Reference value :  9.75013e-06
 Reference value :  9.75017e-06
 Reference value :  9.75020e-06
 Reference value :  9.75020e-06
 Reference value :  9.75020e-06
 Reference value :  9.75020e-06
 Reference value :  9.75021e-06
 Reference value :  9.75022e-06
 Reference value :  9.75024e-06
 Reference value :  9.75029e-06
 Reference value :  9.75038e-06
 Reference value :  9.75056e-06
 Reference value :  9.75088e-06
 Reference value :  9.75145e-06
 Reference value :  9.75221e-06
 Reference value :  9.75298e-06
 Reference value :  9.75381e-06
 Reference value :  9.75489e-06
 Reference value :  9.75577e-06
 Reference value :  9.75683e-06
 Reference value :  9.75806e-06
 Reference value :  9.75923e-06
 Reference value :  9.76078e-06
 Reference value :  9.76360e-06
 Reference value :  9.76635e-06
 Reference value :  9.77044e-06
 Reference value :  9.77639e-06
 Reference value :  9.78829e-06
 Reference value :  9.81118e-06
 Reference value :  9.85194e-06
 Reference value :  9.93344e-06
 Reference value :  1.00000e-05
 Reference value :  1.00000e-05
 Reference value :  1.00000e-05
 Reference value :  1.00001e-05
 Reference value :  1.00001e-05
 Reference value :  1.00001e-05
 Reference value :  1.00001e-05
 Reference value :  1.00001e-05
 Reference value :  1.00002e-05
 Reference value :  1.00002e-05
 Reference value :  1.00004e-05
 Reference value :  1.00006e-05
 Reference value :  1.00009e-05
 Reference value :  1.00015e-05
 Reference value :  1.00021e-05
 Reference value :  1.00029e-05
 Reference value :  1.00037e-05
 Reference value :  1.00046e-05
 Reference value :  1.00056e-05
 Reference value :  1.00067e-05
 Reference value :  1.00079e-05
 Reference value :  1.00094e-05
 Reference value :  1.00106e-05
 Reference value :  1.00120e-05
 Reference value :  1.00136e-05
 Reference value :  1.00153e-05
 Reference value :  1.00170e-05
 Reference value :  1.00188e-05
 Reference value :  1.00208e-05
 Reference value :  1.00231e-05
 Reference value :  1.00276e-05
 Reference value :  1.00345e-05
 Reference value :  1.00480e-05
 Reference value :  1.00714e-05
 Reference value :  1.01182e-05
 Reference value :  1.02118e-05
 Reference value :  1.02501e-05
 Reference value :  1.02501e-05
 Reference value :  1.02501e-05
 Reference value :  1.02502e-05
 Reference value :  1.02502e-05
 Reference value :  1.02502e-05
 Reference value :  1.02502e-05
 Reference value :  1.02502e-05
 Reference value :  1.02502e-05
 Reference value :  1.02502e-05
 Reference value :  1.02502e-05
 Reference value :  1.02503e-05
 Reference value :  1.02504e-05
 Reference value :  1.02506e-05
 Reference value :  1.02509e-05
 Reference value :  1.02515e-05
 Reference value :  1.02522e-05
 Reference value :  1.02530e-05
 Reference value :  1.02538e-05
 Reference value :  1.02549e-05
 Reference value :  1.02558e-05
 Reference value :  1.02568e-05
 Reference value :  1.02577e-05
 Reference value :  1.02587e-05
 Reference value :  1.02601e-05
 Reference value :  1.02615e-05
 Reference value :  1.02643e-05
 Reference value :  1.02673e-05
 Reference value :  1.02723e-05
 Reference value :  1.02789e-05
 Reference value :  1.02920e-05
 Reference value :  1.03183e-05
 Reference value :  1.03707e-05
 Reference value :  1.04757e-05
 Reference value :  1.05000e-05
 Reference value :  1.05000e-05
 Reference value :  1.05000e-05
 Reference value :  1.05001e-05
 Reference value :  1.05001e-05
 Reference value :  1.05001e-05
 Reference value :  1.05001e-05
 Reference value :  1.05001e-05
 Reference value :  1.05002e-05
 Reference value :  1.05002e-05
 Reference value :  1.05004e-05
 Reference value :  1.05006e-05
 Reference value :  1.05009e-05
 Reference value :  1.05015e-05
 Reference value :  1.05021e-05
 Reference value :  1.05029e-05
 Reference value :  1.05037e-05
 Reference value :  1.05046e-05
 Reference value :  1.05056e-05
 Reference value :  1.05066e-05
 Reference value :  1.05075e-05
 Reference value :  1.05085e-05
 Reference value :  1.05095e-05
 Reference value :  1.05106e-05
 Reference value :  1.05121e-05
 Reference value :  1.05140e-05
 Reference value :  1.05169e-05
 Reference value :  1.05200e-05
 Reference value :  1.05226e-05
 Reference value :  1.05247e-05
 Reference value :  1.05268e-05
 Reference value :  1.05289e-05
 Reference value :  1.05310e-05
 Reference value :  1.05335e-05
 Reference value :  1.05362e-05
 Reference value :  1.05395e-05
 Reference value :  1.05442e-05
 Reference value :  1.05493e-05
 Reference value :  1.05541e-05
 Reference value :  1.05590e-05
 Reference value :  1.05632e-05
 Reference value :  1.05676e-05
 Reference value :  1.05718e-05
 Reference value :  1.05764e-05
 Reference value :  1.05825e-05
 Reference value :  1.05884e-05
 Reference value :  1.05942e-05
 Reference value :  1.06014e-05
 Reference value :  1.06145e-05
 Reference value :  1.06360e-05
 Reference value :  1.06700e-05
 Reference value :  1.07379e-05
 Reference value :  1.07501e-05
 Reference value :  1.07501e-05
 Reference value :  1.07501e-05
 Reference value :  1.07502e-05
 Reference value :  1.07502e-05
 Reference value :  1.07502e-05
 Reference value :  1.07502e-05
 Reference value :  1.07502e-05
 Reference value :  1.07502e-05
 Reference value :  1.07502e-05
 Reference value :  1.07502e-05
 Reference value :  1.07503e-05
 Reference value :  1.07504e-05
 Reference value :  1.07506e-05
 Reference value :  1.07509e-05
 Reference value :  1.07515e-05
 Reference value :  1.07522e-05
 Reference value :  1.07530e-05
 Reference value :  1.07538e-05
 Reference value :  1.07549e-05
 Reference value :  1.07557e-05
 Reference value :  1.07567e-05
 Reference value :  1.07579e-05
 Reference value :  1.07591e-05
 Reference value :  1.07606e-05
 Reference value :  1.07635e-05
 Reference value :  1.07661e-05
 Reference value :  1.07701e-05
 Reference value :  1.07758e-05
 Reference value :  1.07872e-05
 Reference value :  1.08100e-05
 Reference value :  1.08508e-05
 Reference value :  1.09326e-05
 Reference value :  1.10000e-05
 Reference value :  1.10000e-05
 Reference value :  1.10000e-05
 Reference value :  1.10001e-05
 Reference value :  1.10001e-05
 Reference value :  1.10001e-05
 Reference value :  1.10001e-05
 Reference value :  1.10001e-05
 Reference value :  1.10002e-05
 Reference value :  1.10002e-05
 Reference value :  1.10004e-05
 Reference value :  1.10006e-05
 Reference value :  1.10009e-05
 Reference value :  1.10015e-05
 Reference value :  1.10021e-05
 Reference value :  1.10028e-05
 Reference value :  1.10036e-05
 Reference value :  1.10045e-05
 Reference value :  1.10056e-05
 Reference value :  1.10067e-05
 Reference value :  1.10080e-05
 Reference value :  1.10095e-05
 Reference value :  1.10107e-05
 Reference value :  1.10121e-05
 Reference value :  1.10137e-05
 Reference value :  1.10155e-05
 Reference value :  1.10175e-05
 Reference value :  1.10193e-05
 Reference value :  1.10217e-05
 Reference value :  1.10243e-05
 Reference value :  1.10290e-05
 Reference value :  1.10363e-05
 Reference value :  1.10497e-05
 Reference value :  1.10763e-05
 Reference value :  1.11260e-05
 Reference value :  1.12255e-05
 Reference value :  1.12501e-05
 Reference value :  1.12501e-05
 Reference value :  1.12501e-05
 Reference value :  1.12502e-05
 Reference value :  1.12502e-05
 Reference value :  1.12502e-05
 Reference value :  1.12502e-05
 Reference value :  1.12502e-05
 Reference value :  1.12502e-05
 Reference value :  1.12502e-05
 Reference value :  1.12502e-05
 Reference value :  1.12503e-05
 Reference value :  1.12504e-05
 Reference value :  1.12506e-05
 Reference value :  1.12509e-05
 Reference value :  1.12515e-05
 Reference value :  1.12522e-05
 Reference value :  1.12530e-05
 Reference value :  1.12538e-05
 Reference value :  1.12549e-05
 Reference value :  1.12558e-05
 Reference value :  1.12568e-05
 Reference value :  1.12577e-05
 Reference value :  1.12587e-05
 Reference value :  1.12599e-05
 Reference value :  1.12613e-05
 Reference value :  1.12630e-05
 Reference value :  1.12647e-05
 Reference value :  1.12676e-05
 Reference value :  1.12707e-05
 Reference value :  1.12755e-05
 Reference value :  1.12822e-05
 Reference value :  1.12954e-05
 Reference value :  1.13146e-05
 Reference value :  1.13487e-05
 Reference value :  1.14073e-05
 Reference value :  1.15000e-05
 Reference value :  1.15000e-05
 Reference value :  1.15000e-05
 Reference value :  1.15001e-05
 Reference value :  1.15001e-05
 Reference value :  1.15001e-05
 Reference value :  1.15001e-05
 Reference value :  1.15001e-05
 Reference value :  1.15002e-05
 Reference value :  1.15002e-05
 Reference value :  1.15004e-05
 Reference value :  1.15006e-05
 Reference value :  1.15009e-05
 Reference value :  1.15015e-05
 Reference value :  1.15021e-05
 Reference value :  1.15029e-05
 Reference value :  1.15037e-05
 Reference value :  1.15046e-05
 Reference value :  1.15056e-05
 Reference value :  1.15065e-05
 Reference value :  1.15074e-05
 Reference value :  1.15084e-05
 Reference value :  1.15094e-05
 Reference value :  1.15105e-05
 Reference value :  1.15119e-05
 Reference value :  1.15137e-05
 Reference value :  1.15162e-05
 Reference value :  1.15181e-05
 Reference value :  1.15201e-05
 Reference value :  1.15224e-05
 Reference value :  1.15240e-05
 Reference value :  1.15256e-05
 Reference value :  1.15274e-05
 Reference value :  1.15292e-05
 Reference value :  1.15312e-05
 Reference value :  1.15334e-05
 Reference value :  1.15365e-05
 Reference value :  1.15398e-05
 Reference value :  1.15461e-05
 Reference value :  1.15550e-05
 Reference value :  1.15693e-05
 Reference value :  1.15932e-05
 Reference value :  1.16372e-05
 Reference value :  1.17057e-05
 Reference value :  1.17501e-05
 Reference value :  1.17501e-05
 Reference value :  1.17501e-05
 Reference value :  1.17502e-05
 Reference value :  1.17502e-05
 Reference value :  1.17502e-05
 Reference value :  1.17502e-05
 Reference value :  1.17502e-05
 Reference value :  1.17502e-05
 Reference value :  1.17502e-05
 Reference value :  1.17502e-05
 Reference value :  1.17503e-05
 Reference value :  1.17504e-05
 Reference value :  1.17506e-05
 Reference value :  1.17509e-05
 Reference value :  1.17515e-05
 Reference value :  1.17522e-05
 Reference value :  1.17530e-05
 Reference value :  1.17538e-05
 Reference value :  1.17549e-05
 Reference value :  1.17558e-05
 Reference value :  1.17568e-05
 Reference value :  1.17580e-05
 Reference value :  1.17592e-05
 Reference value :  1.17607e-05
 Reference value :  1.17633e-05
 Reference value :  1.17661e-05
 Reference value :  1.17700e-05
 Reference value :  1.17758e-05
 Reference value :  1.17876e-05
 Reference value :  1.18106e-05
 Reference value :  1.18493e-05
 Reference value :  1.19181e-05
 Reference value :  1.20000e-05
 Reference value :  1.20000e-05
 Reference value :  1.20000e-05
 Reference value :  1.20001e-05
 Reference value :  1.20001e-05
 Reference value :  1.20001e-05
 Reference value :  1.20001e-05
 Reference value :  1.20001e-05
 Reference value :  1.20002e-05
 Reference value :  1.20002e-05
 Reference value :  1.20004e-05
 Reference value :  1.20006e-05
 Reference value :  1.20009e-05
 Reference value :  1.20015e-05
 Reference value :  1.20021e-05
 Reference value :  1.20028e-05
 Reference value :  1.20036e-05
 Reference value :  1.20045e-05
 Reference value :  1.20056e-05
 Reference value :  1.20066e-05
 Reference value :  1.20080e-05
 Reference value :  1.20093e-05
 Reference value :  1.20105e-05
 Reference value :  1.20120e-05
 Reference value :  1.20136e-05
 Reference value :  1.20153e-05
 Reference value :  1.20173e-05
 Reference value :  1.20192e-05
 Reference value :  1.20221e-05
 Reference value :  1.20250e-05
 Reference value :  1.20306e-05
 Reference value :  1.20396e-05
 Reference value :  1.20555e-05
 Reference value :  1.20873e-05
 Reference value :  1.21464e-05
 Reference value :  1.22501e-05
 Reference value :  1.22501e-05
 Reference value :  1.22501e-05
 Reference value :  1.22502e-05
 Reference value :  1.22502e-05
 Reference value :  1.22502e-05
 Reference value :  1.22502e-05
 Reference value :  1.22502e-05
 Reference value :  1.22502e-05
 Reference value :  1.22502e-05
 Reference value :  1.22502e-05
 Reference value :  1.22503e-05
 Reference value :  1.22504e-05
 Reference value :  1.22506e-05
 Reference value :  1.22509e-05
 Reference value :  1.22515e-05
 Reference value :  1.22522e-05
 Reference value :  1.22530e-05
 Reference value :  1.22538e-05
 Reference value :  1.22549e-05
 Reference value :  1.22558e-05
 Reference value :  1.22568e-05
 Reference value :  1.22577e-05
 Reference value :  1.22587e-05
 Reference value :  1.22599e-05
 Reference value :  1.22613e-05
 Reference value :  1.22630e-05
 Reference value :  1.22647e-05
 Reference value :  1.22676e-05
 Reference value :  1.22706e-05
 Reference value :  1.22754e-05
 Reference value :  1.22821e-05
 Reference value :  1.22951e-05
 Reference value :  1.23140e-05
 Reference value :  1.23473e-05
 Reference value :  1.24068e-05
 Reference value :  1.25000e-05
 Reference value :  1.25000e-05
 Reference value :  1.25000e-05
 Reference value :  1.25001e-05
 Reference value :  1.25001e-05
 Reference value :  1.25001e-05
 Reference value :  1.25001e-05
 Reference value :  1.25001e-05
 Reference value :  1.25002e-05
 Reference value :  1.25002e-05
 Reference value :  1.25004e-05
 Reference value :  1.25006e-05
 Reference value :  1.25009e-05
 Reference value :  1.25015e-05
 Reference value :  1.25021e-05
 Reference value :  1.25029e-05
 Reference value :  1.25037e-05
 Reference value :  1.25046e-05
 Reference value :  1.25056e-05
 Reference value :  1.25065e-05
 Reference value :  1.25074e-05
 Reference value :  1.25083e-05
 Reference value :  1.25094e-05
 Reference value :  1.25105e-05
 Reference value :  1.25119e-05
 Reference value :  1.25138e-05
 Reference value :  1.25157e-05
 Reference value :  1.25175e-05
 Reference value :  1.25195e-05
 Reference value :  1.25216e-05
 Reference value :  1.25233e-05
 Reference value :  1.25251e-05
 Reference value :  1.25270e-05
 Reference value :  1.25290e-05
 Reference value :  1.25308e-05
 Reference value :  1.25332e-05
 Reference value :  1.25361e-05
 Reference value :  1.25394e-05
 Reference value :  1.25447e-05
 Reference value :  1.25524e-05
 Reference value :  1.25645e-05
 Reference value :  1.25773e-05
 Reference value :  1.25891e-05
 Reference value :  1.25991e-05
 Reference value :  1.26048e-05
 Reference value :  1.26098e-05
 Reference value :  1.26152e-05
 Reference value :  1.26252e-05
 Reference value :  1.26385e-05
 Reference value :  1.26564e-05
 Reference value :  1.26913e-05
 Reference value :  1.27282e-05
 Reference value :  1.27501e-05
 Reference value :  1.27501e-05
 Reference value :  1.27501e-05
 Reference value :  1.27502e-05
 Reference value :  1.27502e-05
 Reference value :  1.27502e-05
 Reference value :  1.27502e-05
 Reference value :  1.27502e-05
 Reference value :  1.27502e-05
 Reference value :  1.27502e-05
 Reference value :  1.27502e-05
 Reference value :  1.27503e-05
 Reference value :  1.27504e-05
 Reference value :  1.27506e-05
 Reference value :  1.27509e-05
 Reference value :  1.27515e-05
 Reference value :  1.27522e-05
 Reference value :  1.27530e-05
 Reference value :  1.27538e-05
 Reference value :  1.27549e-05
 Reference value :  1.27558e-05
 Reference value :  1.27568e-05
 Reference value :  1.27581e-05
 Reference value :  1.27593e-05
 Reference value :  1.27608e-05
 Reference value :  1.27638e-05
 Reference value :  1.27665e-05
 Reference value :  1.27707e-05
 Reference value :  1.27767e-05
 Reference value :  1.27886e-05
 Reference value :  1.28120e-05
 Reference value :  1.28529e-05
 Reference value :  1.29346e-05
 Reference value :  1.30000e-05
 Reference value :  1.30000e-05
 Reference value :  1.30000e-05
 Reference value :  1.30001e-05
 Reference value :  1.30001e-05
 Reference value :  1.30001e-05
 Reference value :  1.30001e-05
 Reference value :  1.30001e-05
 Reference value :  1.30002e-05
 Reference value :  1.30002e-05
 Reference value :  1.30004e-05
 Reference value :  1.30006e-05
 Reference value :  1.30009e-05
 Reference value :  1.30015e-05
 Reference value :  1.30021e-05
 Reference value :  1.30029e-05
 Reference value :  1.30037e-05
 Reference value :  1.30046e-05
 Reference value :  1.30056e-05
 Reference value :  1.30067e-05
 Reference value :  1.30078e-05
 Reference value :  1.30092e-05
 Reference value :  1.30103e-05
 Reference value :  1.30118e-05
 Reference value :  1.30133e-05
 Reference value :  1.30150e-05
 Reference value :  1.30169e-05
 Reference value :  1.30188e-05
 Reference value :  1.30213e-05
 Reference value :  1.30248e-05
 Reference value :  1.30309e-05
 Reference value :  1.30419e-05
 Reference value :  1.30636e-05
 Reference value :  1.31071e-05
 Reference value :  1.31880e-05
 Reference value :  1.32501e-05
 Reference value :  1.32501e-05
 Reference value :  1.32501e-05
 Reference value :  1.32502e-05
 Reference value :  1.32502e-05
 Reference value :  1.32502e-05
 Reference value :  1.32502e-05
 Reference value :  1.32502e-05
 Reference value :  1.32502e-05
 Reference value :  1.32502e-05
 Reference value :  1.32502e-05
 Reference value :  1.32503e-05
 Reference value :  1.32504e-05
 Reference value :  1.32506e-05
 Reference value :  1.32509e-05
 Reference value :  1.32515e-05
 Reference value :  1.32522e-05
 Reference value :  1.32530e-05
 Reference value :  1.32538e-05
 Reference value :  1.32549e-05
 Reference value :  1.32558e-05
 Reference value :  1.32568e-05
 Reference value :  1.32578e-05
 Reference value :  1.32588e-05
 Reference value :  1.32601e-05
 Reference value :  1.32615e-05
 Reference value :  1.32634e-05
 Reference value :  1.32651e-05
 Reference value :  1.32681e-05
 Reference value :  1.32713e-05
 Reference value :  1.32764e-05
 Reference value :  1.32837e-05
 Reference value :  1.32983e-05
 Reference value :  1.33205e-05
 Reference value :  1.33603e-05
 Reference value :  1.34398e-05
 Reference value :  1.35000e-05
 Reference value :  1.35000e-05
 Reference value :  1.35000e-05
 Reference value :  1.35001e-05
 Reference value :  1.35001e-05
 Reference value :  1.35001e-05
 Reference value :  1.35001e-05
 Reference value :  1.35001e-05
 Reference value :  1.35002e-05
 Reference value :  1.35002e-05
 Reference value :  1.35004e-05
 Reference value :  1.35006e-05
 Reference value :  1.35009e-05
 Reference value :  1.35015e-05
 Reference value :  1.35021e-05
 Reference value :  1.35029e-05
 Reference value :  1.35037e-05
 Reference value :  1.35046e-05
 Reference value :  1.35056e-05
 Reference value :  1.35065e-05
 Reference value :  1.35074e-05
 Reference value :  1.35083e-05
 Reference value :  1.35094e-05
 Reference value :  1.35105e-05
 Reference value :  1.35118e-05
 Reference value :  1.35138e-05
 Reference value :  1.35154e-05
 Reference value :  1.35171e-05
 Reference value :  1.35188e-05
 Reference value :  1.35207e-05
 Reference value :  1.35224e-05
 Reference value :  1.35237e-05
 Reference value :  1.35250e-05
 Reference value :  1.35266e-05
 Reference value :  1.35283e-05
 Reference value :  1.35299e-05
 Reference value :  1.35315e-05
 Reference value :  1.35334e-05
 Reference value :  1.35356e-05
 Reference value :  1.35394e-05
 Reference value :  1.35459e-05
 Reference value :  1.35558e-05
 Reference value :  1.35709e-05
 Reference value :  1.35865e-05
 Reference value :  1.36056e-05
 Reference value :  1.36259e-05
 Reference value :  1.36569e-05
 Reference value :  1.37083e-05
 Reference value :  1.37501e-05
 Reference value :  1.37501e-05
 Reference value :  1.37501e-05
 Reference value :  1.37502e-05
 Reference value :  1.37502e-05
 Reference value :  1.37502e-05
 Reference value :  1.37502e-05
 Reference value :  1.37502e-05
 Reference value :  1.37502e-05
 Reference value :  1.37502e-05
 Reference value :  1.37502e-05
 Reference value :  1.37503e-05
 Reference value :  1.37504e-05
 Reference value :  1.37506e-05
 Reference value :  1.37509e-05
 Reference value :  1.37515e-05
 Reference value :  1.37522e-05
 Reference value :  1.37530e-05
 Reference value :  1.37538e-05
 Reference value :  1.37549e-05
 Reference value :  1.37558e-05
 Reference value :  1.37568e-05
 Reference value :  1.37581e-05
 Reference value :  1.37593e-05
 Reference value :  1.37608e-05
 Reference value :  1.37638e-05
 Reference value :  1.37665e-05
 Reference value :  1.37708e-05
 Reference value :  1.37767e-05
 Reference value :  1.37887e-05
 Reference value :  1.38121e-05
 Reference value :  1.38530e-05
 Reference value :  1.39349e-05
 Reference value :  1.40000e-05
 Reference value :  1.40000e-05
 Reference value :  1.40000e-05
 Reference value :  1.40001e-05
 Reference value :  1.40001e-05
 Reference value :  1.40001e-05
 Reference value :  1.40001e-05
 Reference value :  1.40001e-05
 Reference value :  1.40002e-05
 Reference value :  1.40002e-05
 Reference value :  1.40004e-05
 Reference value :  1.40006e-05
 Reference value :  1.40009e-05
 Reference value :  1.40015e-05
 Reference value :  1.40021e-05
 Reference value :  1.40029e-05
 Reference value :  1.40037e-05
 Reference value :  1.40046e-05
 Reference value :  1.40056e-05
 Reference value :  1.40067e-05
 Reference value :  1.40079e-05
 Reference value :  1.40094e-05
 Reference value :  1.40105e-05
 Reference value :  1.40119e-05
 Reference value :  1.40134e-05
 Reference value :  1.40151e-05
 Reference value :  1.40169e-05
 Reference value :  1.40187e-05
 Reference value :  1.40208e-05
 Reference value :  1.40248e-05
 Reference value :  1.40329e-05
 Reference value :  1.40445e-05
 Reference value :  1.40675e-05
 Reference value :  1.41136e-05
 Reference value :  1.42058e-05
 Reference value :  1.42501e-05
 Reference value :  1.42501e-05
 Reference value :  1.42501e-05
 Reference value :  1.42502e-05
 Reference value :  1.42502e-05
 Reference value :  1.42502e-05
 Reference value :  1.42502e-05
 Reference value :  1.42502e-05
 Reference value :  1.42502e-05
 Reference value :  1.42502e-05
 Reference value :  1.42502e-05
 Reference value :  1.42503e-05
 Reference value :  1.42504e-05
 Reference value :  1.42506e-05
 Reference value :  1.42509e-05
 Reference value :  1.42515e-05
 Reference value :  1.42522e-05
 Reference value :  1.42530e-05
 Reference value :  1.42538e-05
 Reference value :  1.42549e-05
 Reference value :  1.42558e-05
 Reference value :  1.42568e-05
 Reference value :  1.42577e-05
 Reference value :  1.42587e-05
 Reference value :  1.42600e-05
 Reference value :  1.42615e-05
 Reference value :  1.42643e-05
 Reference value :  1.42672e-05
 Reference value :  1.42722e-05
 Reference value :  1.42787e-05
 Reference value :  1.42918e-05
 Reference value :  1.43178e-05
 Reference value :  1.43699e-05
 Reference value :  1.44741e-05
 Reference value :  1.45000e-05
 Reference value :  1.45000e-05
 Reference value :  1.45000e-05
 Reference value :  1.45001e-05
 Reference value :  1.45001e-05
 Reference value :  1.45001e-05
 Reference value :  1.45001e-05
 Reference value :  1.45001e-05
 Reference value :  1.45002e-05
 Reference value :  1.45002e-05
 Reference value :  1.45004e-05
 Reference value :  1.45006e-05
 Reference value :  1.45009e-05
 Reference value :  1.45015e-05
 Reference value :  1.45021e-05
 Reference value :  1.45029e-05
 Reference value :  1.45037e-05
 Reference value :  1.45046e-05
 Reference value :  1.45056e-05
 Reference value :  1.45067e-05
 Reference value :  1.45076e-05
 Reference value :  1.45084e-05
 Reference value :  1.45094e-05
 Reference value :  1.45106e-05
 Reference value :  1.45119e-05
 Reference value :  1.45141e-05
 Reference value :  1.45172e-05
 Reference value :  1.45202e-05
 Reference value :  1.45228e-05
 Reference value :  1.45249e-05
 Reference value :  1.45268e-05
 Reference value :  1.45287e-05
 Reference value :  1.45307e-05
 Reference value :  1.45331e-05
 Reference value :  1.45357e-05
 Reference value :  1.45389e-05
 Reference value :  1.45434e-05
 Reference value :  1.45504e-05
 Reference value :  1.45592e-05
 Reference value :  1.45688e-05
 Reference value :  1.45802e-05
 Reference value :  1.45922e-05
 Reference value :  1.46034e-05
 Reference value :  1.46142e-05
 Reference value :  1.46273e-05
 Reference value :  1.46418e-05
 Reference value :  1.46591e-05
 Reference value :  1.46937e-05
 Reference value :  1.47501e-05
 Reference value :  1.47501e-05
 Reference value :  1.47501e-05
 Reference value :  1.47502e-05
 Reference value :  1.47502e-05
 Reference value :  1.47502e-05
 Reference value :  1.47502e-05
 Reference value :  1.47502e-05
 Reference value :  1.47502e-05
 Reference value :  1.47502e-05
 Reference value :  1.47502e-05
 Reference value :  1.47503e-05
 Reference value :  1.47504e-05
 Reference value :  1.47506e-05
 Reference value :  1.47509e-05
 Reference value :  1.47515e-05
 Reference value :  1.47522e-05
 Reference value :  1.47530e-05
 Reference value :  1.47538e-05
 Reference value :  1.47549e-05
 Reference value :  1.47558e-05
 Reference value :  1.47568e-05
 Reference value :  1.47581e-05
 Reference value :  1.47593e-05
 Reference value :  1.47608e-05
 Reference value :  1.47636e-05
 Reference value :  1.47664e-05
 Reference value :  1.47704e-05
 Reference value :  1.47765e-05
 Reference value :  1.47885e-05
 Reference value :  1.48118e-05
 Reference value :  1.48535e-05
 Reference value :  1.49369e-05
 Reference value :  1.50000e-05
 Reference value :  1.50000e-05
 Reference value :  1.50000e-05
 Reference value :  1.50001e-05
 Reference value :  1.50001e-05
 Reference value :  1.50001e-05
 Reference value :  1.50001e-05
 Reference value :  1.50001e-05
 Reference value :  1.50002e-05
 Reference value :  1.50002e-05
 Reference value :  1.50004e-05
 Reference value :  1.50006e-05
 Reference value :  1.50009e-05
 Reference value :  1.50015e-05
 Reference value :  1.50021e-05
 Reference value :  1.50029e-05
 Reference value :  1.50037e-05
 Reference value :  1.50046e-05
 Reference value :  1.50056e-05
 Reference value :  1.50067e-05
 Reference value :  1.50078e-05
 Reference value :  1.50092e-05
 Reference value :  1.50104e-05
 Reference value :  1.50119e-05
 Reference value :  1.50135e-05
 Reference value :  1.50152e-05
 Reference value :  1.50171e-05
 Reference value :  1.50191e-05
 Reference value :  1.50212e-05
 Reference value :  1.50255e-05
 Reference value :  1.50337e-05
 Reference value :  1.50457e-05
 Reference value :  1.50696e-05
 Reference value :  1.51176e-05
 Reference value :  1.52135e-05
 Reference value :  1.52501e-05
 Reference value :  1.52501e-05
 Reference value :  1.52501e-05
 Reference value :  1.52502e-05
 Reference value :  1.52502e-05
 Reference value :  1.52502e-05
 Reference value :  1.52502e-05
 Reference value :  1.52502e-05
 Reference value :  1.52502e-05
 Reference value :  1.52502e-05
 Reference value :  1.52502e-05
 Reference value :  1.52503e-05
 Reference value :  1.52504e-05
 Reference value :  1.52506e-05
 Reference value :  1.52509e-05
 Reference value :  1.52515e-05
 Reference value :  1.52522e-05
 Reference value :  1.52530e-05
 Reference value :  1.52538e-05
 Reference value :  1.52549e-05
 Reference value :  1.52558e-05
 Reference value :  1.52568e-05
 Reference value :  1.52577e-05
 Reference value :  1.52587e-05
 Reference value :  1.52601e-05
 Reference value :  1.52615e-05
 Reference value :  1.52643e-05
 Reference value :  1.52672e-05
 Reference value :  1.52723e-05
 Reference value :  1.52788e-05
 Reference value :  1.52919e-05
 Reference value :  1.53180e-05
 Reference value :  1.53702e-05
 Reference value :  1.54748e-05
 Reference value :  1.55000e-05
 Reference value :  1.55004e-05
 Reference value :  1.55011e-05
 Reference value :  1.55015e-05
 Reference value :  1.55018e-05
 Reference value :  1.55026e-05
 Reference value :  1.55033e-05
 Reference value :  1.55042e-05
 Reference value :  1.55051e-05
 Reference value :  1.55061e-05
 Reference value :  1.55071e-05
 Reference value :  1.55084e-05
 Reference value :  1.55096e-05
 Reference value :  1.55108e-05
 Reference value :  1.55125e-05
 Reference value :  1.55143e-05
 Reference value :  1.55171e-05
 Reference value :  1.55202e-05
 Reference value :  1.55227e-05
 Reference value :  1.55248e-05
 Reference value :  1.55268e-05
 Reference value :  1.55288e-05
 Reference value :  1.55308e-05
 Reference value :  1.55332e-05
 Reference value :  1.55358e-05
 Reference value :  1.55391e-05
 Reference value :  1.55436e-05
 Reference value :  1.55491e-05
 Reference value :  1.55570e-05
 Reference value :  1.55679e-05
 Reference value :  1.55897e-05
 Reference value :  1.56189e-05
 Reference value :  1.56714e-05
 Reference value :  1.57267e-05
 Reference value :  1.57501e-05
 Reference value :  1.57501e-05
 Reference value :  1.57501e-05
 Reference value :  1.57502e-05
 Reference value :  1.57502e-05
 Reference value :  1.57502e-05
 Reference value :  1.57502e-05
 Reference value :  1.57502e-05
 Reference value :  1.57502e-05
 Reference value :  1.57502e-05
 Reference value :  1.57502e-05
 Reference value :  1.57503e-05
 Reference value :  1.57504e-05
 Reference value :  1.57506e-05
 Reference value :  1.57509e-05
 Reference value :  1.57515e-05
 Reference value :  1.57522e-05
 Reference value :  1.57530e-05
 Reference value :  1.57538e-05
 Reference value :  1.57549e-05
 Reference value :  1.57558e-05
 Reference value :  1.57568e-05
 Reference value :  1.57580e-05
 Reference value :  1.57592e-05
 Reference value :  1.57607e-05
 Reference value :  1.57636e-05
 Reference value :  1.57662e-05
 Reference value :  1.57703e-05
 Reference value :  1.57761e-05
 Reference value :  1.57877e-05
 Reference value :  1.58109e-05
 Reference value :  1.58521e-05
 Reference value :  1.59344e-05
 Reference value :  1.60000e-05
 Reference value :  1.60000e-05
 Reference value :  1.60000e-05
 Reference value :  1.60001e-05
 Reference value :  1.60001e-05
 Reference value :  1.60001e-05
 Reference value :  1.60001e-05
 Reference value :  1.60001e-05
 Reference value :  1.60002e-05
 Reference value :  1.60002e-05
 Reference value :  1.60004e-05
 Reference value :  1.60006e-05
 Reference value :  1.60009e-05
 Reference value :  1.60016e-05
 Reference value :  1.60022e-05
 Reference value :  1.60029e-05
 Reference value :  1.60038e-05
 Reference value :  1.60047e-05
 Reference value :  1.60056e-05
 Reference value :  1.60067e-05
 Reference value :  1.60079e-05
 Reference value :  1.60094e-05
 Reference value :  1.60106e-05
 Reference value :  1.60120e-05
 Reference value :  1.60136e-05
 Reference value :  1.60153e-05
 Reference value :  1.60173e-05
 Reference value :  1.60193e-05
 Reference value :  1.60217e-05
 Reference value :  1.60260e-05
 Reference value :  1.60328e-05
 Reference value :  1.60452e-05
 Reference value :  1.60682e-05
 Reference value :  1.61142e-05
 Reference value :  1.62062e-05
 Reference value :  1.62501e-05
 Reference value :  1.62501e-05
 Reference value :  1.62501e-05
 Reference value :  1.62502e-05
 Reference value :  1.62502e-05
 Reference value :  1.62502e-05
 Reference value :  1.62502e-05
 Reference value :  1.62502e-05
 Reference value :  1.62502e-05
 Reference value :  1.62502e-05
 Reference value :  1.62502e-05
 Reference value :  1.62503e-05
 Reference value :  1.62504e-05
 Reference value :  1.62506e-05
 Reference value :  1.62509e-05
 Reference value :  1.62515e-05
 Reference value :  1.62522e-05
 Reference value :  1.62530e-05
[...]
 Reference value :  1.40250e-04
 Reference value :  1.40250e-04
 Reference value :  1.40251e-04
 Reference value :  1.40251e-04
 Reference value :  1.40251e-04
 Reference value :  1.40252e-04
 Reference value :  1.40253e-04
 Reference value :  1.40254e-04
 Reference value :  1.40255e-04
 Reference value :  1.40256e-04
 Reference value :  1.40257e-04
 Reference value :  1.40258e-04
 Reference value :  1.40259e-04
 Reference value :  1.40261e-04
 Reference value :  1.40264e-04
 Reference value :  1.40267e-04
 Reference value :  1.40271e-04
 Reference value :  1.40277e-04
 Reference value :  1.40289e-04
 Reference value :  1.40312e-04
 Reference value :  1.40353e-04
 Reference value :  1.40435e-04
 Reference value :  1.40500e-04
 Reference value :  1.40500e-04
 Reference value :  1.40500e-04
 Reference value :  1.40500e-04
 Reference value :  1.40500e-04
 Reference value :  1.40500e-04
 Reference value :  1.40500e-04
 Reference value :  1.40500e-04
 Reference value :  1.40500e-04
 Reference value :  1.40500e-04
 Reference value :  1.40500e-04
 Reference value :  1.40501e-04
 Reference value :  1.40501e-04
 Reference value :  1.40502e-04
 Reference value :  1.40502e-04
 Reference value :  1.40503e-04
 Reference value :  1.40504e-04
 Reference value :  1.40505e-04
 Reference value :  1.40506e-04
 Reference value :  1.40507e-04
 Reference value :  1.40508e-04
 Reference value :  1.40509e-04
 Reference value :  1.40510e-04
 Reference value :  1.40512e-04
 Reference value :  1.40513e-04
 Reference value :  1.40515e-04
 Reference value :  1.40517e-04
 Reference value :  1.40519e-04
 Reference value :  1.40521e-04
 Reference value :  1.40525e-04
 Reference value :  1.40531e-04
 Reference value :  1.40542e-04
 Reference value :  1.40564e-04
 Reference value :  1.40607e-04
 Reference value :  1.40694e-04
 Reference value :  1.40750e-04
 Reference value :  1.40750e-04
 Reference value :  1.40750e-04
 Reference value :  1.40750e-04
 Reference value :  1.40750e-04
 Reference value :  1.40750e-04
 Reference value :  1.40750e-04
 Reference value :  1.40750e-04
 Reference value :  1.40750e-04
 Reference value :  1.40750e-04
 Reference value :  1.40750e-04
 Reference value :  1.40750e-04
 Reference value :  1.40750e-04
 Reference value :  1.40751e-04
 Reference value :  1.40751e-04
 Reference value :  1.40751e-04
 Reference value :  1.40752e-04
 Reference value :  1.40753e-04
 Reference value :  1.40754e-04
 Reference value :  1.40755e-04
 Reference value :  1.40756e-04
 Reference value :  1.40757e-04
 Reference value :  1.40758e-04
 Reference value :  1.40759e-04
 Reference value :  1.40760e-04
 Reference value :  1.40761e-04
 Reference value :  1.40764e-04
 Reference value :  1.40767e-04
 Reference value :  1.40772e-04
 Reference value :  1.40779e-04
 Reference value :  1.40792e-04
 Reference value :  1.40818e-04
 Reference value :  1.40870e-04
 Reference value :  1.40974e-04
 Reference value :  1.41000e-04
 Reference value :  1.41000e-04
 Reference value :  1.41000e-04
 Reference value :  1.41000e-04
 Reference value :  1.41000e-04
 Reference value :  1.41000e-04
 Reference value :  1.41000e-04
 Reference value :  1.41000e-04
 Reference value :  1.41000e-04
 Reference value :  1.41000e-04
 Reference value :  1.41000e-04
 Reference value :  1.41001e-04
 Reference value :  1.41001e-04
 Reference value :  1.41002e-04
 Reference value :  1.41002e-04
 Reference value :  1.41003e-04
 Reference value :  1.41004e-04
 Reference value :  1.41005e-04
 Reference value :  1.41006e-04
 Reference value :  1.41007e-04
 Reference value :  1.41007e-04
 Reference value :  1.41008e-04
 Reference value :  1.41009e-04
 Reference value :  1.41010e-04
 Reference value :  1.41012e-04
 Reference value :  1.41014e-04
 Reference value :  1.41017e-04
 Reference value :  1.41020e-04
 Reference value :  1.41022e-04
 Reference value :  1.41024e-04
 Reference value :  1.41026e-04
 Reference value :  1.41028e-04
 Reference value :  1.41030e-04
 Reference value :  1.41033e-04
 Reference value :  1.41035e-04
 Reference value :  1.41039e-04
 Reference value :  1.41042e-04
 Reference value :  1.41049e-04
 Reference value :  1.41056e-04
 Reference value :  1.41062e-04
 Reference value :  1.41069e-04
 Reference value :  1.41076e-04
 Reference value :  1.41088e-04
 Reference value :  1.41100e-04
 Reference value :  1.41120e-04
 Reference value :  1.41142e-04
 Reference value :  1.41186e-04
 Reference value :  1.41248e-04
 Reference value :  1.41250e-04
 Reference value :  1.41250e-04
 Reference value :  1.41250e-04
 Reference value :  1.41250e-04
 Reference value :  1.41250e-04
 Reference value :  1.41250e-04
 Reference value :  1.41250e-04
 Reference value :  1.41250e-04
 Reference value :  1.41250e-04
 Reference value :  1.41250e-04
 Reference value :  1.41250e-04
 Reference value :  1.41250e-04
 Reference value :  1.41250e-04
 Reference value :  1.41251e-04
 Reference value :  1.41251e-04
 Reference value :  1.41251e-04
 Reference value :  1.41252e-04
 Reference value :  1.41253e-04
 Reference value :  1.41254e-04
 Reference value :  1.41255e-04
 Reference value :  1.41256e-04
 Reference value :  1.41257e-04
 Reference value :  1.41258e-04
 Reference value :  1.41259e-04
 Reference value :  1.41261e-04
 Reference value :  1.41263e-04
 Reference value :  1.41266e-04
 Reference value :  1.41270e-04
 Reference value :  1.41276e-04
 Reference value :  1.41287e-04
 Reference value :  1.41310e-04
 Reference value :  1.41351e-04
 Reference value :  1.41433e-04
 Reference value :  1.41500e-04
 Reference value :  1.41500e-04
 Reference value :  1.41500e-04
 Reference value :  1.41500e-04
 Reference value :  1.41500e-04
 Reference value :  1.41500e-04
 Reference value :  1.41500e-04
 Reference value :  1.41500e-04
 Reference value :  1.41500e-04
 Reference value :  1.41500e-04
 Reference value :  1.41500e-04
 Reference value :  1.41501e-04
 Reference value :  1.41501e-04
 Reference value :  1.41502e-04
 Reference value :  1.41502e-04
 Reference value :  1.41503e-04
 Reference value :  1.41504e-04
 Reference value :  1.41505e-04
 Reference value :  1.41506e-04
 Reference value :  1.41507e-04
 Reference value :  1.41508e-04
 Reference value :  1.41509e-04
 Reference value :  1.41511e-04
 Reference value :  1.41512e-04
 Reference value :  1.41514e-04
 Reference value :  1.41515e-04
 Reference value :  1.41517e-04
 Reference value :  1.41519e-04
 Reference value :  1.41521e-04
 Reference value :  1.41525e-04
 Reference value :  1.41533e-04
 Reference value :  1.41544e-04
 Reference value :  1.41567e-04
 Reference value :  1.41613e-04
 Reference value :  1.41706e-04
 Reference value :  1.41750e-04
 Reference value :  1.41750e-04
 Reference value :  1.41750e-04
 Reference value :  1.41750e-04
 Reference value :  1.41750e-04
 Reference value :  1.41750e-04
 Reference value :  1.41750e-04
 Reference value :  1.41750e-04
 Reference value :  1.41750e-04
 Reference value :  1.41750e-04
 Reference value :  1.41750e-04
 Reference value :  1.41750e-04
 Reference value :  1.41750e-04
 Reference value :  1.41751e-04
 Reference value :  1.41751e-04
 Reference value :  1.41751e-04
 Reference value :  1.41752e-04
 Reference value :  1.41753e-04
 Reference value :  1.41754e-04
 Reference value :  1.41755e-04
 Reference value :  1.41756e-04
 Reference value :  1.41757e-04
 Reference value :  1.41758e-04
 Reference value :  1.41759e-04
 Reference value :  1.41760e-04
 Reference value :  1.41761e-04
 Reference value :  1.41763e-04
 Reference value :  1.41765e-04
 Reference value :  1.41768e-04
 Reference value :  1.41771e-04
 Reference value :  1.41775e-04
 Reference value :  1.41782e-04
 Reference value :  1.41795e-04
 Reference value :  1.41814e-04
 Reference value :  1.41848e-04
 Reference value :  1.41906e-04
 Reference value :  1.42000e-04
 Reference value :  1.42000e-04
 Reference value :  1.42000e-04
 Reference value :  1.42000e-04
 Reference value :  1.42000e-04
 Reference value :  1.42000e-04
 Reference value :  1.42000e-04
 Reference value :  1.42000e-04
 Reference value :  1.42000e-04
 Reference value :  1.42000e-04
 Reference value :  1.42000e-04
 Reference value :  1.42001e-04
 Reference value :  1.42001e-04
 Reference value :  1.42002e-04
 Reference value :  1.42002e-04
 Reference value :  1.42003e-04
 Reference value :  1.42004e-04
 Reference value :  1.42005e-04
 Reference value :  1.42006e-04
 Reference value :  1.42006e-04
 Reference value :  1.42007e-04
 Reference value :  1.42008e-04
 Reference value :  1.42009e-04
 Reference value :  1.42010e-04
 Reference value :  1.42012e-04
 Reference value :  1.42013e-04
 Reference value :  1.42015e-04
 Reference value :  1.42017e-04
 Reference value :  1.42019e-04
 Reference value :  1.42021e-04
 Reference value :  1.42023e-04
 Reference value :  1.42025e-04
 Reference value :  1.42026e-04
 Reference value :  1.42028e-04
 Reference value :  1.42029e-04
 Reference value :  1.42031e-04
 Reference value :  1.42033e-04
 Reference value :  1.42037e-04
 Reference value :  1.42040e-04
 Reference value :  1.42048e-04
 Reference value :  1.42054e-04
 Reference value :  1.42061e-04
 Reference value :  1.42069e-04
 Reference value :  1.42080e-04
 Reference value :  1.42096e-04
 Reference value :  1.42115e-04
 Reference value :  1.42146e-04
 Reference value :  1.42188e-04
 Reference value :  1.42250e-04
 Reference value :  1.42250e-04
 Reference value :  1.42250e-04
 Reference value :  1.42250e-04
 Reference value :  1.42250e-04
 Reference value :  1.42250e-04
 Reference value :  1.42250e-04
 Reference value :  1.42250e-04
 Reference value :  1.42250e-04
 Reference value :  1.42250e-04
 Reference value :  1.42250e-04
 Reference value :  1.42250e-04
 Reference value :  1.42250e-04
 Reference value :  1.42251e-04
 Reference value :  1.42251e-04
 Reference value :  1.42251e-04
 Reference value :  1.42252e-04
 Reference value :  1.42253e-04
 Reference value :  1.42254e-04
 Reference value :  1.42255e-04
 Reference value :  1.42256e-04
 Reference value :  1.42257e-04
 Reference value :  1.42258e-04
 Reference value :  1.42259e-04
 Reference value :  1.42261e-04
 Reference value :  1.42263e-04
 Reference value :  1.42266e-04
 Reference value :  1.42270e-04
 Reference value :  1.42276e-04
 Reference value :  1.42288e-04
 Reference value :  1.42311e-04
 Reference value :  1.42352e-04
 Reference value :  1.42435e-04
 Reference value :  1.42500e-04
 Reference value :  1.42500e-04
 Reference value :  1.42500e-04
 Reference value :  1.42500e-04
 Reference value :  1.42500e-04
 Reference value :  1.42500e-04
 Reference value :  1.42500e-04
 Reference value :  1.42500e-04
 Reference value :  1.42500e-04
 Reference value :  1.42500e-04
 Reference value :  1.42500e-04
 Reference value :  1.42501e-04
 Reference value :  1.42501e-04
 Reference value :  1.42502e-04
 Reference value :  1.42502e-04
 Reference value :  1.42503e-04
 Reference value :  1.42504e-04
 Reference value :  1.42505e-04
 Reference value :  1.42506e-04
 Reference value :  1.42507e-04
 Reference value :  1.42508e-04
 Reference value :  1.42509e-04
 Reference value :  1.42510e-04
 Reference value :  1.42512e-04
 Reference value :  1.42514e-04
 Reference value :  1.42515e-04
 Reference value :  1.42517e-04
 Reference value :  1.42519e-04
 Reference value :  1.42521e-04
 Reference value :  1.42525e-04
 Reference value :  1.42534e-04
 Reference value :  1.42545e-04
 Reference value :  1.42568e-04
 Reference value :  1.42614e-04
 Reference value :  1.42707e-04
 Reference value :  1.42750e-04
 Reference value :  1.42750e-04
 Reference value :  1.42750e-04
 Reference value :  1.42750e-04
 Reference value :  1.42750e-04
 Reference value :  1.42750e-04
 Reference value :  1.42750e-04
 Reference value :  1.42750e-04
 Reference value :  1.42750e-04
 Reference value :  1.42750e-04
 Reference value :  1.42750e-04
 Reference value :  1.42750e-04
 Reference value :  1.42750e-04
 Reference value :  1.42751e-04
 Reference value :  1.42751e-04
 Reference value :  1.42751e-04
 Reference value :  1.42752e-04
 Reference value :  1.42753e-04
 Reference value :  1.42754e-04
 Reference value :  1.42755e-04
 Reference value :  1.42756e-04
 Reference value :  1.42757e-04
 Reference value :  1.42758e-04
 Reference value :  1.42759e-04
 Reference value :  1.42760e-04
 Reference value :  1.42761e-04
 Reference value :  1.42763e-04
 Reference value :  1.42765e-04
 Reference value :  1.42768e-04
 Reference value :  1.42771e-04
 Reference value :  1.42775e-04
 Reference value :  1.42782e-04
 Reference value :  1.42795e-04
 Reference value :  1.42814e-04
 Reference value :  1.42848e-04
 Reference value :  1.42905e-04
 Reference value :  1.43000e-04
 Reference value :  1.43000e-04
 Reference value :  1.43000e-04
 Reference value :  1.43000e-04
 Reference value :  1.43000e-04
 Reference value :  1.43000e-04
 Reference value :  1.43000e-04
 Reference value :  1.43000e-04
 Reference value :  1.43000e-04
 Reference value :  1.43000e-04
 Reference value :  1.43000e-04
 Reference value :  1.43001e-04
 Reference value :  1.43001e-04
 Reference value :  1.43002e-04
 Reference value :  1.43002e-04
 Reference value :  1.43003e-04
 Reference value :  1.43004e-04
 Reference value :  1.43005e-04
 Reference value :  1.43006e-04
 Reference value :  1.43006e-04
 Reference value :  1.43007e-04
 Reference value :  1.43008e-04
 Reference value :  1.43009e-04
 Reference value :  1.43010e-04
 Reference value :  1.43012e-04
 Reference value :  1.43014e-04
 Reference value :  1.43016e-04
 Reference value :  1.43018e-04
 Reference value :  1.43020e-04
 Reference value :  1.43022e-04
 Reference value :  1.43024e-04
 Reference value :  1.43026e-04
 Reference value :  1.43027e-04
 Reference value :  1.43029e-04
 Reference value :  1.43031e-04
 Reference value :  1.43033e-04
 Reference value :  1.43035e-04
 Reference value :  1.43038e-04
 Reference value :  1.43042e-04
 Reference value :  1.43045e-04
 Reference value :  1.43050e-04
 Reference value :  1.43056e-04
 Reference value :  1.43066e-04
 Reference value :  1.43082e-04
 Reference value :  1.43112e-04
 Reference value :  1.43148e-04
 Reference value :  1.43219e-04
 Reference value :  1.43250e-04
 Reference value :  1.43250e-04
 Reference value :  1.43250e-04
 Reference value :  1.43250e-04
 Reference value :  1.43250e-04
 Reference value :  1.43250e-04
 Reference value :  1.43250e-04
 Reference value :  1.43250e-04
 Reference value :  1.43250e-04
 Reference value :  1.43250e-04
 Reference value :  1.43250e-04
 Reference value :  1.43250e-04
 Reference value :  1.43250e-04
 Reference value :  1.43251e-04
 Reference value :  1.43251e-04
 Reference value :  1.43251e-04
 Reference value :  1.43252e-04
 Reference value :  1.43253e-04
 Reference value :  1.43254e-04
 Reference value :  1.43255e-04
 Reference value :  1.43256e-04
 Reference value :  1.43257e-04
 Reference value :  1.43258e-04
 Reference value :  1.43259e-04
 Reference value :  1.43261e-04
 Reference value :  1.43263e-04
 Reference value :  1.43266e-04
 Reference value :  1.43270e-04
 Reference value :  1.43276e-04
 Reference value :  1.43287e-04
 Reference value :  1.43309e-04
 Reference value :  1.43350e-04
 Reference value :  1.43433e-04
 Reference value :  1.43500e-04
 Reference value :  1.43500e-04
 Reference value :  1.43500e-04
 Reference value :  1.43500e-04
 Reference value :  1.43500e-04
 Reference value :  1.43500e-04
 Reference value :  1.43500e-04
 Reference value :  1.43500e-04
 Reference value :  1.43500e-04
 Reference value :  1.43500e-04
 Reference value :  1.43500e-04
 Reference value :  1.43501e-04
 Reference value :  1.43501e-04
 Reference value :  1.43502e-04
 Reference value :  1.43502e-04
 Reference value :  1.43503e-04
 Reference value :  1.43504e-04
 Reference value :  1.43505e-04
 Reference value :  1.43506e-04
 Reference value :  1.43507e-04
 Reference value :  1.43508e-04
 Reference value :  1.43509e-04
 Reference value :  1.43511e-04
 Reference value :  1.43512e-04
 Reference value :  1.43514e-04
 Reference value :  1.43516e-04
 Reference value :  1.43517e-04
 Reference value :  1.43520e-04
 Reference value :  1.43522e-04
 Reference value :  1.43526e-04
 Reference value :  1.43534e-04
 Reference value :  1.43547e-04
 Reference value :  1.43571e-04
 Reference value :  1.43621e-04
 Reference value :  1.43720e-04
 Reference value :  1.43750e-04
 Reference value :  1.43750e-04
 Reference value :  1.43750e-04
 Reference value :  1.43750e-04
 Reference value :  1.43750e-04
 Reference value :  1.43750e-04
 Reference value :  1.43750e-04
 Reference value :  1.43750e-04
 Reference value :  1.43750e-04
 Reference value :  1.43750e-04
 Reference value :  1.43750e-04
 Reference value :  1.43750e-04
 Reference value :  1.43750e-04
 Reference value :  1.43751e-04
 Reference value :  1.43751e-04
 Reference value :  1.43751e-04
 Reference value :  1.43752e-04
 Reference value :  1.43753e-04
 Reference value :  1.43754e-04
 Reference value :  1.43755e-04
 Reference value :  1.43756e-04
 Reference value :  1.43757e-04
 Reference value :  1.43758e-04
 Reference value :  1.43759e-04
 Reference value :  1.43760e-04
 Reference value :  1.43761e-04
 Reference value :  1.43763e-04
 Reference value :  1.43765e-04
 Reference value :  1.43767e-04
 Reference value :  1.43771e-04
 Reference value :  1.43775e-04
 Reference value :  1.43782e-04
 Reference value :  1.43795e-04
 Reference value :  1.43814e-04
 Reference value :  1.43847e-04
 Reference value :  1.43906e-04
 Reference value :  1.44000e-04
 Reference value :  1.44000e-04
 Reference value :  1.44000e-04
 Reference value :  1.44000e-04
 Reference value :  1.44000e-04
 Reference value :  1.44000e-04
 Reference value :  1.44000e-04
 Reference value :  1.44000e-04
 Reference value :  1.44000e-04
 Reference value :  1.44000e-04
 Reference value :  1.44000e-04
 Reference value :  1.44001e-04
 Reference value :  1.44001e-04
 Reference value :  1.44002e-04
 Reference value :  1.44002e-04
 Reference value :  1.44003e-04
 Reference value :  1.44004e-04
 Reference value :  1.44005e-04
 Reference value :  1.44006e-04
 Reference value :  1.44007e-04
 Reference value :  1.44007e-04
 Reference value :  1.44008e-04
 Reference value :  1.44009e-04
 Reference value :  1.44010e-04
 Reference value :  1.44012e-04
 Reference value :  1.44014e-04
 Reference value :  1.44016e-04
 Reference value :  1.44018e-04
 Reference value :  1.44020e-04
 Reference value :  1.44022e-04
 Reference value :  1.44024e-04
 Reference value :  1.44027e-04
 Reference value :  1.44030e-04
 Reference value :  1.44034e-04
 Reference value :  1.44039e-04
 Reference value :  1.44047e-04
 Reference value :  1.44056e-04
 Reference value :  1.44069e-04
 Reference value :  1.44084e-04
 Reference value :  1.44103e-04
 Reference value :  1.44116e-04
 Reference value :  1.44130e-04
 Reference value :  1.44148e-04
 Reference value :  1.44177e-04
 Reference value :  1.44223e-04
 Reference value :  1.44250e-04
 Reference value :  1.44250e-04
 Reference value :  1.44250e-04
 Reference value :  1.44250e-04
 Reference value :  1.44250e-04
 Reference value :  1.44250e-04
 Reference value :  1.44250e-04
 Reference value :  1.44250e-04
 Reference value :  1.44250e-04
 Reference value :  1.44250e-04
 Reference value :  1.44250e-04
 Reference value :  1.44250e-04
 Reference value :  1.44250e-04
 Reference value :  1.44251e-04
 Reference value :  1.44251e-04
 Reference value :  1.44252e-04
 Reference value :  1.44252e-04
 Reference value :  1.44253e-04
 Reference value :  1.44254e-04
 Reference value :  1.44255e-04
 Reference value :  1.44256e-04
 Reference value :  1.44258e-04
 Reference value :  1.44260e-04
 Reference value :  1.44261e-04
 Reference value :  1.44264e-04
 Reference value :  1.44268e-04
 Reference value :  1.44273e-04
 Reference value :  1.44280e-04
 Reference value :  1.44295e-04
 Reference value :  1.44325e-04
 Reference value :  1.44384e-04
 Reference value :  1.44500e-04
No. of Data Rows : 21738
ngspice-44 done
