
Note: Compatibility modes selected: hs a


Circuit: ** sch_path: /home/ece/cace/sar-adc-using-sky130-pdk/runs/run_2025-09-12_17-06-12/parameters/sndr/run_0/sndr_enob_fom.sch

option SCALE: Scale is set to 1e-06 for instance and model parameters
option SCALE: Scale is set to 1e-06 for instance and model parameters
option SCALE: Scale is set to 1e-06 for instance and model parameters
option SCALE: Scale is set to 1e-06 for instance and model parameters
Doing analysis at TEMP = 27.000000 and TNOM = 27.000000

Using KLU as Direct Linear Solver
Operating point simulation skipped by 'uic',
  now using transient initial conditions.
 Reference value :  1.00000e-12
 Reference value :  1.02772e-12
 Reference value :  1.08316e-12
 Reference value :  1.19404e-12
 Reference value :  1.33846e-12
 Reference value :  1.62730e-12
 Reference value :  2.20497e-12
 Reference value :  3.04335e-12
 Reference value :  3.94982e-12
 Reference value :  5.16967e-12
 Reference value :  6.91498e-12
 Reference value :  1.00767e-11
 Reference value :  1.37755e-11
 Reference value :  2.04792e-11
 Reference value :  2.74531e-11
 Reference value :  3.63427e-11
 Reference value :  4.73670e-11
 Reference value :  6.40000e-11
 Reference value :  8.44867e-11
 Reference value :  1.00000e-10
 Reference value :  1.01289e-10
 Reference value :  1.03866e-10
 Reference value :  1.09021e-10
 Reference value :  1.19331e-10
 Reference value :  1.39951e-10
 Reference value :  1.81190e-10
 Reference value :  2.63669e-10
 Reference value :  4.15317e-10
 Reference value :  5.83588e-10
 Reference value :  8.54486e-10
 Reference value :  1.22772e-09
 Reference value :  1.75611e-09
 Reference value :  2.54906e-09
 Reference value :  3.30321e-09
 Reference value :  4.35206e-09
 Reference value :  5.34186e-09
 Reference value :  6.32567e-09
 Reference value :  7.62657e-09
 Reference value :  8.92457e-09
 Reference value :  1.01050e-08
 Reference value :  1.09192e-08
 Reference value :  1.17736e-08
 Reference value :  1.27335e-08
 Reference value :  1.37398e-08
 Reference value :  1.57524e-08
 Reference value :  1.87764e-08
 Reference value :  2.28244e-08
 Reference value :  2.72930e-08
 Reference value :  3.10749e-08
 Reference value :  3.50553e-08
 Reference value :  3.89429e-08
 Reference value :  4.29948e-08
 Reference value :  5.10985e-08
 Reference value :  6.69847e-08
 Reference value :  9.11807e-08
 Reference value :  1.39573e-07
 Reference value :  2.01725e-07
 Reference value :  2.50100e-07
 Reference value :  2.50110e-07
 Reference value :  2.50130e-07
 Reference value :  2.50170e-07
 Reference value :  2.50200e-07
 Reference value :  2.50201e-07
 Reference value :  2.50202e-07
 Reference value :  2.50204e-07
 Reference value :  2.50208e-07
 Reference value :  2.50216e-07
 Reference value :  2.50233e-07
 Reference value :  2.50267e-07
 Reference value :  2.50335e-07
 Reference value :  2.50428e-07
 Reference value :  2.50611e-07
 Reference value :  2.50792e-07
 Reference value :  2.51135e-07
 Reference value :  2.51558e-07
 Reference value :  2.52259e-07
 Reference value :  2.52900e-07
 Reference value :  2.53739e-07
 Reference value :  2.54754e-07
 Reference value :  2.55923e-07
 Reference value :  2.57000e-07
 Reference value :  2.58032e-07
 Reference value :  2.59197e-07
 Reference value :  2.60299e-07
 Reference value :  2.62113e-07
 Reference value :  2.64722e-07
 Reference value :  2.67421e-07
 Reference value :  2.72043e-07
 Reference value :  2.78807e-07
 Reference value :  2.92334e-07
 Reference value :  3.19388e-07
 Reference value :  3.70350e-07
 Reference value :  4.72275e-07
 Reference value :  5.00000e-07
 Reference value :  5.00010e-07
 Reference value :  5.00030e-07
 Reference value :  5.00070e-07
 Reference value :  5.00100e-07
 Reference value :  5.00104e-07
 Reference value :  5.00113e-07
 Reference value :  5.00130e-07
 Reference value :  5.00164e-07
 Reference value :  5.00232e-07
 Reference value :  5.00369e-07
 Reference value :  5.00560e-07
 Reference value :  5.00941e-07
 Reference value :  5.01536e-07
 Reference value :  5.02163e-07
 Reference value :  5.02854e-07
 Reference value :  5.03676e-07
 Reference value :  5.04428e-07
 Reference value :  5.05342e-07
 Reference value :  5.06300e-07
 Reference value :  5.07291e-07
 Reference value :  5.08691e-07
 Reference value :  5.10115e-07
 Reference value :  5.12675e-07
 Reference value :  5.15600e-07
 Reference value :  5.17748e-07
 Reference value :  5.20194e-07
 Reference value :  5.22649e-07
 Reference value :  5.25203e-07
 Reference value :  5.28411e-07
 Reference value :  5.33033e-07
 Reference value :  5.39375e-07
 Reference value :  5.48758e-07
 Reference value :  5.67523e-07
 Reference value :  5.94942e-07
 Reference value :  6.46001e-07
 Reference value :  7.44577e-07
 Reference value :  7.50100e-07
 Reference value :  7.50110e-07
 Reference value :  7.50130e-07
 Reference value :  7.50170e-07
 Reference value :  7.50200e-07
 Reference value :  7.50201e-07
 Reference value :  7.50202e-07
 Reference value :  7.50205e-07
 Reference value :  7.50212e-07
 Reference value :  7.50224e-07
 Reference value :  7.50249e-07
 Reference value :  7.50298e-07
 Reference value :  7.50396e-07
 Reference value :  7.50594e-07
 Reference value :  7.50984e-07
 Reference value :  7.51569e-07
 Reference value :  7.52239e-07
 Reference value :  7.52985e-07
 Reference value :  7.53829e-07
 Reference value :  7.54923e-07
 Reference value :  7.55816e-07
 Reference value :  7.56877e-07
 Reference value :  7.57785e-07
 Reference value :  7.58768e-07
 Reference value :  7.59882e-07
 Reference value :  7.61132e-07
 Reference value :  7.63633e-07
 Reference value :  7.66447e-07
 Reference value :  7.70881e-07
 Reference value :  7.76848e-07
 Reference value :  7.88782e-07
 Reference value :  8.12649e-07
 Reference value :  8.60150e-07
 Reference value :  9.55151e-07
 Reference value :  1.00000e-06
 Reference value :  1.00001e-06
 Reference value :  1.00003e-06
 Reference value :  1.00007e-06
 Reference value :  1.00010e-06
 Reference value :  1.00010e-06
 Reference value :  1.00011e-06
 Reference value :  1.00013e-06
 Reference value :  1.00016e-06
 Reference value :  1.00023e-06
 Reference value :  1.00037e-06
 Reference value :  1.00056e-06
 Reference value :  1.00094e-06
 Reference value :  1.00153e-06
 Reference value :  1.00216e-06
 Reference value :  1.00285e-06
 Reference value :  1.00357e-06
 Reference value :  1.00432e-06
 Reference value :  1.00516e-06
 Reference value :  1.00607e-06
 Reference value :  1.00702e-06
 Reference value :  1.00795e-06
 Reference value :  1.00904e-06
 Reference value :  1.01001e-06
 Reference value :  1.01108e-06
 Reference value :  1.01259e-06
 Reference value :  1.01427e-06
 Reference value :  1.01717e-06
 Reference value :  1.02013e-06
 Reference value :  1.02249e-06
 Reference value :  1.02462e-06
 Reference value :  1.02615e-06
 Reference value :  1.02771e-06
 Reference value :  1.02917e-06
 Reference value :  1.03074e-06
 Reference value :  1.03251e-06
 Reference value :  1.03500e-06
 Reference value :  1.03757e-06
 Reference value :  1.04224e-06
 Reference value :  1.04907e-06
 Reference value :  1.05961e-06
 Reference value :  1.07738e-06
 Reference value :  1.10517e-06
 Reference value :  1.14496e-06
 Reference value :  1.19138e-06
 Reference value :  1.23680e-06
 Reference value :  1.25010e-06
 Reference value :  1.25011e-06
 Reference value :  1.25013e-06
 Reference value :  1.25017e-06
 Reference value :  1.25020e-06
 Reference value :  1.25020e-06
 Reference value :  1.25020e-06
 Reference value :  1.25021e-06
 Reference value :  1.25021e-06
 Reference value :  1.25022e-06
 Reference value :  1.25025e-06
 Reference value :  1.25030e-06
 Reference value :  1.25039e-06
 Reference value :  1.25059e-06
 Reference value :  1.25092e-06
 Reference value :  1.25155e-06
 Reference value :  1.25216e-06
 Reference value :  1.25295e-06
 Reference value :  1.25376e-06
 Reference value :  1.25484e-06
 Reference value :  1.25572e-06
 Reference value :  1.25674e-06
 Reference value :  1.25772e-06
 Reference value :  1.25875e-06
 Reference value :  1.26047e-06
 Reference value :  1.26208e-06
 Reference value :  1.26495e-06
 Reference value :  1.26808e-06
 Reference value :  1.27316e-06
 Reference value :  1.28031e-06
 Reference value :  1.29462e-06
 Reference value :  1.32324e-06
 Reference value :  1.38048e-06
 Reference value :  1.49060e-06
 Reference value :  1.50000e-06
 Reference value :  1.50001e-06
 Reference value :  1.50003e-06
 Reference value :  1.50007e-06
 Reference value :  1.50010e-06
 Reference value :  1.50010e-06
 Reference value :  1.50011e-06
 Reference value :  1.50013e-06
 Reference value :  1.50016e-06
 Reference value :  1.50023e-06
 Reference value :  1.50037e-06
 Reference value :  1.50055e-06
 Reference value :  1.50092e-06
 Reference value :  1.50160e-06
 Reference value :  1.50223e-06
 Reference value :  1.50286e-06
 Reference value :  1.50358e-06
 Reference value :  1.50432e-06
 Reference value :  1.50516e-06
 Reference value :  1.50607e-06
 Reference value :  1.50711e-06
 Reference value :  1.50846e-06
 Reference value :  1.50983e-06
 Reference value :  1.51139e-06
 Reference value :  1.51280e-06
 Reference value :  1.51427e-06
 Reference value :  1.51633e-06
 Reference value :  1.51823e-06
 Reference value :  1.52026e-06
 Reference value :  1.52330e-06
 Reference value :  1.52624e-06
 Reference value :  1.53177e-06
 Reference value :  1.53931e-06
 Reference value :  1.55184e-06
 Reference value :  1.57371e-06
 Reference value :  1.60894e-06
 Reference value :  1.67395e-06
 Reference value :  1.75010e-06
 Reference value :  1.75011e-06
 Reference value :  1.75013e-06
 Reference value :  1.75017e-06
 Reference value :  1.75020e-06
 Reference value :  1.75020e-06
 Reference value :  1.75020e-06
 Reference value :  1.75021e-06
 Reference value :  1.75021e-06
 Reference value :  1.75022e-06
 Reference value :  1.75025e-06
 Reference value :  1.75030e-06
 Reference value :  1.75040e-06
 Reference value :  1.75059e-06
 Reference value :  1.75094e-06
 Reference value :  1.75155e-06
 Reference value :  1.75218e-06
 Reference value :  1.75295e-06
 Reference value :  1.75378e-06
 Reference value :  1.75485e-06
 Reference value :  1.75576e-06
 Reference value :  1.75682e-06
 Reference value :  1.75775e-06
 Reference value :  1.75873e-06
 Reference value :  1.75987e-06
 Reference value :  1.76115e-06
 Reference value :  1.76245e-06
 Reference value :  1.76424e-06
 Reference value :  1.76646e-06
 Reference value :  1.76922e-06
 Reference value :  1.77289e-06
 Reference value :  1.77805e-06
 Reference value :  1.78836e-06
 Reference value :  1.80597e-06
 Reference value :  1.84121e-06
 Reference value :  1.91168e-06
 Reference value :  2.00000e-06
 Reference value :  2.00001e-06
 Reference value :  2.00003e-06
 Reference value :  2.00007e-06
 Reference value :  2.00010e-06
 Reference value :  2.00010e-06
 Reference value :  2.00011e-06
 Reference value :  2.00013e-06
 Reference value :  2.00016e-06
 Reference value :  2.00023e-06
 Reference value :  2.00037e-06
 Reference value :  2.00055e-06
 Reference value :  2.00092e-06
 Reference value :  2.00160e-06
 Reference value :  2.00223e-06
 Reference value :  2.00291e-06
 Reference value :  2.00363e-06
 Reference value :  2.00438e-06
 Reference value :  2.00522e-06
 Reference value :  2.00613e-06
 Reference value :  2.00697e-06
 Reference value :  2.00785e-06
 Reference value :  2.00875e-06
 Reference value :  2.00971e-06
 Reference value :  2.01060e-06
 Reference value :  2.01185e-06
 Reference value :  2.01314e-06
 Reference value :  2.01539e-06
 Reference value :  2.01787e-06
 Reference value :  2.01971e-06
 Reference value :  2.02176e-06
 Reference value :  2.02372e-06
 Reference value :  2.02521e-06
 Reference value :  2.02661e-06
 Reference value :  2.02809e-06
 Reference value :  2.02967e-06
 Reference value :  2.03147e-06
 Reference value :  2.03332e-06
 Reference value :  2.03647e-06
 Reference value :  2.03945e-06
 Reference value :  2.04541e-06
 Reference value :  2.05734e-06
 Reference value :  2.07535e-06
 Reference value :  2.09886e-06
 Reference value :  2.12025e-06
 Reference value :  2.13688e-06
 Reference value :  2.14527e-06
 Reference value :  2.15240e-06
 Reference value :  2.16023e-06
 Reference value :  2.17303e-06
 Reference value :  2.19118e-06
 Reference value :  2.21626e-06
 Reference value :  2.25010e-06
 Reference value :  2.25011e-06
 Reference value :  2.25013e-06
 Reference value :  2.25017e-06
 Reference value :  2.25020e-06
 Reference value :  2.25020e-06
 Reference value :  2.25020e-06
 Reference value :  2.25021e-06
 Reference value :  2.25021e-06
 Reference value :  2.25022e-06
 Reference value :  2.25025e-06
 Reference value :  2.25030e-06
 Reference value :  2.25039e-06
 Reference value :  2.25059e-06
 Reference value :  2.25093e-06
 Reference value :  2.25154e-06
 Reference value :  2.25217e-06
 Reference value :  2.25295e-06
 Reference value :  2.25376e-06
 Reference value :  2.25483e-06
 Reference value :  2.25579e-06
 Reference value :  2.25687e-06
 Reference value :  2.25798e-06
 Reference value :  2.25905e-06
 Reference value :  2.26085e-06
 Reference value :  2.26260e-06
 Reference value :  2.26542e-06
 Reference value :  2.26896e-06
 Reference value :  2.27428e-06
 Reference value :  2.28492e-06
 Reference value :  2.30355e-06
 Reference value :  2.33753e-06
 Reference value :  2.40549e-06
 Reference value :  2.46969e-06
 Reference value :  2.50000e-06
 Reference value :  2.50001e-06
 Reference value :  2.50003e-06
 Reference value :  2.50007e-06
 Reference value :  2.50010e-06
 Reference value :  2.50010e-06
 Reference value :  2.50011e-06
 Reference value :  2.50013e-06
 Reference value :  2.50016e-06
 Reference value :  2.50023e-06
 Reference value :  2.50037e-06
 Reference value :  2.50055e-06
 Reference value :  2.50092e-06
 Reference value :  2.50160e-06
 Reference value :  2.50223e-06
 Reference value :  2.50291e-06
 Reference value :  2.50363e-06
 Reference value :  2.50438e-06
 Reference value :  2.50524e-06
 Reference value :  2.50616e-06
 Reference value :  2.50719e-06
 Reference value :  2.50853e-06
 Reference value :  2.50991e-06
 Reference value :  2.51147e-06
 Reference value :  2.51303e-06
 Reference value :  2.51463e-06
 Reference value :  2.51656e-06
 Reference value :  2.51830e-06
 Reference value :  2.52026e-06
 Reference value :  2.52237e-06
 Reference value :  2.52661e-06
 Reference value :  2.53479e-06
 Reference value :  2.54850e-06
 Reference value :  2.57593e-06
 Reference value :  2.63080e-06
 Reference value :  2.74053e-06
 Reference value :  2.75010e-06
 Reference value :  2.75011e-06
 Reference value :  2.75013e-06
 Reference value :  2.75017e-06
 Reference value :  2.75020e-06
 Reference value :  2.75020e-06
 Reference value :  2.75020e-06
 Reference value :  2.75021e-06
 Reference value :  2.75021e-06
 Reference value :  2.75022e-06
 Reference value :  2.75025e-06
 Reference value :  2.75030e-06
 Reference value :  2.75039e-06
 Reference value :  2.75059e-06
 Reference value :  2.75093e-06
 Reference value :  2.75154e-06
 Reference value :  2.75216e-06
 Reference value :  2.75294e-06
 Reference value :  2.75375e-06
 Reference value :  2.75482e-06
 Reference value :  2.75575e-06
 Reference value :  2.75683e-06
 Reference value :  2.75777e-06
 Reference value :  2.75877e-06
 Reference value :  2.75991e-06
 Reference value :  2.76118e-06
 Reference value :  2.76373e-06
 Reference value :  2.76655e-06
 Reference value :  2.77107e-06
 Reference value :  2.77719e-06
 Reference value :  2.78943e-06
 Reference value :  2.81390e-06
 Reference value :  2.86284e-06
 Reference value :  2.96071e-06
 Reference value :  3.00000e-06
 Reference value :  3.00001e-06
 Reference value :  3.00003e-06
 Reference value :  3.00007e-06
 Reference value :  3.00010e-06
 Reference value :  3.00010e-06
 Reference value :  3.00011e-06
 Reference value :  3.00013e-06
 Reference value :  3.00016e-06
 Reference value :  3.00023e-06
 Reference value :  3.00037e-06
 Reference value :  3.00055e-06
 Reference value :  3.00092e-06
 Reference value :  3.00160e-06
 Reference value :  3.00223e-06
 Reference value :  3.00291e-06
 Reference value :  3.00363e-06
 Reference value :  3.00439e-06
 Reference value :  3.00523e-06
 Reference value :  3.00615e-06
 Reference value :  3.00710e-06
 Reference value :  3.00812e-06
 Reference value :  3.00918e-06
 Reference value :  3.01020e-06
 Reference value :  3.01129e-06
 Reference value :  3.01274e-06
 Reference value :  3.01454e-06
 Reference value :  3.01749e-06
 Reference value :  3.02028e-06
 Reference value :  3.02266e-06
 Reference value :  3.02457e-06
 Reference value :  3.02637e-06
 Reference value :  3.02839e-06
 Reference value :  3.03027e-06
 Reference value :  3.03255e-06
 Reference value :  3.03485e-06
 Reference value :  3.03824e-06
 Reference value :  3.04232e-06
 Reference value :  3.05010e-06
 Reference value :  3.06238e-06
 Reference value :  3.07503e-06
 Reference value :  3.08695e-06
 Reference value :  3.10105e-06
 Reference value :  3.11063e-06
 Reference value :  3.11963e-06
 Reference value :  3.13059e-06
 Reference value :  3.13726e-06
 Reference value :  3.14572e-06
 Reference value :  3.15496e-06
 Reference value :  3.17050e-06
 Reference value :  3.18896e-06
 Reference value :  3.21659e-06
 Reference value :  3.25010e-06
 Reference value :  3.25011e-06
 Reference value :  3.25013e-06
 Reference value :  3.25017e-06
 Reference value :  3.25020e-06
 Reference value :  3.25020e-06
 Reference value :  3.25020e-06
 Reference value :  3.25021e-06
 Reference value :  3.25021e-06
 Reference value :  3.25022e-06
 Reference value :  3.25025e-06
 Reference value :  3.25030e-06
 Reference value :  3.25039e-06
 Reference value :  3.25059e-06
 Reference value :  3.25092e-06
 Reference value :  3.25154e-06
 Reference value :  3.25216e-06
 Reference value :  3.25294e-06
 Reference value :  3.25375e-06
 Reference value :  3.25482e-06
 Reference value :  3.25570e-06
 Reference value :  3.25673e-06
 Reference value :  3.25772e-06
 Reference value :  3.25874e-06
 Reference value :  3.26046e-06
 Reference value :  3.26207e-06
 Reference value :  3.26493e-06
 Reference value :  3.26805e-06
 Reference value :  3.27311e-06
 Reference value :  3.28253e-06
 Reference value :  3.30138e-06
 Reference value :  3.33818e-06
 Reference value :  3.41179e-06
 Reference value :  3.50000e-06
 Reference value :  3.50001e-06
 Reference value :  3.50003e-06
 Reference value :  3.50007e-06
 Reference value :  3.50010e-06
 Reference value :  3.50010e-06
 Reference value :  3.50011e-06
 Reference value :  3.50013e-06
 Reference value :  3.50016e-06
 Reference value :  3.50023e-06
 Reference value :  3.50037e-06
 Reference value :  3.50056e-06
 Reference value :  3.50093e-06
 Reference value :  3.50161e-06
 Reference value :  3.50223e-06
 Reference value :  3.50286e-06
 Reference value :  3.50357e-06
 Reference value :  3.50431e-06
 Reference value :  3.50516e-06
 Reference value :  3.50606e-06
 Reference value :  3.50701e-06
 Reference value :  3.50838e-06
 Reference value :  3.50964e-06
 Reference value :  3.51121e-06
 Reference value :  3.51251e-06
 Reference value :  3.51391e-06
 Reference value :  3.51569e-06
 Reference value :  3.51758e-06
 Reference value :  3.51943e-06
 Reference value :  3.52228e-06
 Reference value :  3.52500e-06
 Reference value :  3.53010e-06
 Reference value :  3.53730e-06
 Reference value :  3.54923e-06
 Reference value :  3.57075e-06
 Reference value :  3.60597e-06
 Reference value :  3.67060e-06
 Reference value :  3.75010e-06
 Reference value :  3.75011e-06
 Reference value :  3.75013e-06
 Reference value :  3.75017e-06
 Reference value :  3.75020e-06
 Reference value :  3.75020e-06
 Reference value :  3.75020e-06
 Reference value :  3.75021e-06
 Reference value :  3.75021e-06
 Reference value :  3.75022e-06
 Reference value :  3.75025e-06
 Reference value :  3.75030e-06
 Reference value :  3.75040e-06
 Reference value :  3.75059e-06
 Reference value :  3.75094e-06
 Reference value :  3.75154e-06
 Reference value :  3.75218e-06
 Reference value :  3.75295e-06
 Reference value :  3.75377e-06
 Reference value :  3.75483e-06
 Reference value :  3.75574e-06
 Reference value :  3.75681e-06
 Reference value :  3.75774e-06
 Reference value :  3.75873e-06
 Reference value :  3.75986e-06
 Reference value :  3.76112e-06
 Reference value :  3.76239e-06
 Reference value :  3.76420e-06
 Reference value :  3.76634e-06
 Reference value :  3.76909e-06
 Reference value :  3.77267e-06
 Reference value :  3.77775e-06
 Reference value :  3.78791e-06
 Reference value :  3.80372e-06
 Reference value :  3.83535e-06
 Reference value :  3.89859e-06
 Reference value :  4.00000e-06
 Reference value :  4.00001e-06
 Reference value :  4.00003e-06
 Reference value :  4.00007e-06
 Reference value :  4.00010e-06
 Reference value :  4.00010e-06
 Reference value :  4.00011e-06
 Reference value :  4.00013e-06
 Reference value :  4.00016e-06
 Reference value :  4.00023e-06
 Reference value :  4.00037e-06
 Reference value :  4.00055e-06
 Reference value :  4.00092e-06
 Reference value :  4.00160e-06
 Reference value :  4.00223e-06
 Reference value :  4.00291e-06
 Reference value :  4.00363e-06
 Reference value :  4.00438e-06
 Reference value :  4.00522e-06
 Reference value :  4.00613e-06
 Reference value :  4.00697e-06
 Reference value :  4.00785e-06
 Reference value :  4.00875e-06
 Reference value :  4.00972e-06
 Reference value :  4.01065e-06
 Reference value :  4.01197e-06
 Reference value :  4.01333e-06
 Reference value :  4.01560e-06
 Reference value :  4.01720e-06
 Reference value :  4.01891e-06
 Reference value :  4.02047e-06
 Reference value :  4.02227e-06
 Reference value :  4.02357e-06
 Reference value :  4.02482e-06
 Reference value :  4.02650e-06
 Reference value :  4.02804e-06
 Reference value :  4.02966e-06
 Reference value :  4.03153e-06
 Reference value :  4.03348e-06
 Reference value :  4.03615e-06
 Reference value :  4.03803e-06
 Reference value :  4.04006e-06
 Reference value :  4.04236e-06
 Reference value :  4.04477e-06
 Reference value :  4.04952e-06
 Reference value :  4.05498e-06
 Reference value :  4.06387e-06
 Reference value :  4.07436e-06
 Reference value :  4.09369e-06
 Reference value :  4.12392e-06
 Reference value :  4.15284e-06
 Reference value :  4.17988e-06
 Reference value :  4.20944e-06
 Reference value :  4.25010e-06
 Reference value :  4.25011e-06
 Reference value :  4.25013e-06
 Reference value :  4.25017e-06
 Reference value :  4.25020e-06
 Reference value :  4.25020e-06
 Reference value :  4.25020e-06
 Reference value :  4.25021e-06
 Reference value :  4.25021e-06
 Reference value :  4.25022e-06
 Reference value :  4.25025e-06
 Reference value :  4.25030e-06
 Reference value :  4.25040e-06
 Reference value :  4.25059e-06
 Reference value :  4.25093e-06
 Reference value :  4.25154e-06
 Reference value :  4.25218e-06
 Reference value :  4.25294e-06
 Reference value :  4.25376e-06
 Reference value :  4.25483e-06
 Reference value :  4.25578e-06
 Reference value :  4.25687e-06
 Reference value :  4.25797e-06
 Reference value :  4.25904e-06
 Reference value :  4.26083e-06
 Reference value :  4.26257e-06
 Reference value :  4.26540e-06
 Reference value :  4.26893e-06
 Reference value :  4.27419e-06
 Reference value :  4.28470e-06
 Reference value :  4.30326e-06
 Reference value :  4.33691e-06
 Reference value :  4.40422e-06
 Reference value :  4.50000e-06
 Reference value :  4.50001e-06
 Reference value :  4.50003e-06
 Reference value :  4.50007e-06
 Reference value :  4.50010e-06
 Reference value :  4.50010e-06
 Reference value :  4.50011e-06
 Reference value :  4.50013e-06
 Reference value :  4.50016e-06
 Reference value :  4.50023e-06
 Reference value :  4.50037e-06
 Reference value :  4.50056e-06
 Reference value :  4.50092e-06
 Reference value :  4.50161e-06
 Reference value :  4.50223e-06
 Reference value :  4.50291e-06
 Reference value :  4.50362e-06
 Reference value :  4.50438e-06
 Reference value :  4.50523e-06
 Reference value :  4.50615e-06
 Reference value :  4.50711e-06
 Reference value :  4.50847e-06
 Reference value :  4.50978e-06
 Reference value :  4.51127e-06
 Reference value :  4.51298e-06
 Reference value :  4.51452e-06
 Reference value :  4.51599e-06
 Reference value :  4.51760e-06
 Reference value :  4.51927e-06
 Reference value :  4.52119e-06
 Reference value :  4.52501e-06
 Reference value :  4.53054e-06
 Reference value :  4.54158e-06
 Reference value :  4.56368e-06
 Reference value :  4.60746e-06
 Reference value :  4.69503e-06
 Reference value :  4.75010e-06
 Reference value :  4.75011e-06
 Reference value :  4.75013e-06
 Reference value :  4.75017e-06
 Reference value :  4.75020e-06
 Reference value :  4.75020e-06
 Reference value :  4.75020e-06
 Reference value :  4.75021e-06
 Reference value :  4.75021e-06
 Reference value :  4.75022e-06
 Reference value :  4.75025e-06
 Reference value :  4.75030e-06
 Reference value :  4.75039e-06
 Reference value :  4.75059e-06
 Reference value :  4.75092e-06
 Reference value :  4.75154e-06
 Reference value :  4.75216e-06
 Reference value :  4.75294e-06
 Reference value :  4.75375e-06
 Reference value :  4.75481e-06
 Reference value :  4.75574e-06
 Reference value :  4.75682e-06
 Reference value :  4.75777e-06
 Reference value :  4.75876e-06
 Reference value :  4.75990e-06
 Reference value :  4.76118e-06
 Reference value :  4.76373e-06
 Reference value :  4.76654e-06
 Reference value :  4.77107e-06
 Reference value :  4.77719e-06
 Reference value :  4.78943e-06
 Reference value :  4.81392e-06
 Reference value :  4.86290e-06
 Reference value :  4.96085e-06
 Reference value :  5.00000e-06
 Reference value :  5.00001e-06
 Reference value :  5.00003e-06
 Reference value :  5.00007e-06
 Reference value :  5.00010e-06
 Reference value :  5.00010e-06
 Reference value :  5.00011e-06
 Reference value :  5.00013e-06
 Reference value :  5.00016e-06
 Reference value :  5.00023e-06
 Reference value :  5.00037e-06
 Reference value :  5.00055e-06
 Reference value :  5.00092e-06
 Reference value :  5.00160e-06
 Reference value :  5.00223e-06
 Reference value :  5.00291e-06
 Reference value :  5.00364e-06
 Reference value :  5.00440e-06
 Reference value :  5.00525e-06
 Reference value :  5.00617e-06
 Reference value :  5.00719e-06
 Reference value :  5.00822e-06
 Reference value :  5.00909e-06
 Reference value :  5.01014e-06
 Reference value :  5.01115e-06
 Reference value :  5.01249e-06
 Reference value :  5.01444e-06
 Reference value :  5.01734e-06
 Reference value :  5.02026e-06
 Reference value :  5.02266e-06
 Reference value :  5.02460e-06
 Reference value :  5.02643e-06
 Reference value :  5.02846e-06
 Reference value :  5.03035e-06
 Reference value :  5.03279e-06
 Reference value :  5.03501e-06
 Reference value :  5.03851e-06
 Reference value :  5.04297e-06
 Reference value :  5.05039e-06
 Reference value :  5.06284e-06
 Reference value :  5.07876e-06
 Reference value :  5.09119e-06
 Reference value :  5.10179e-06
 Reference value :  5.11215e-06
 Reference value :  5.12178e-06
 Reference value :  5.13078e-06
 Reference value :  5.13918e-06
 Reference value :  5.14825e-06
 Reference value :  5.16640e-06
 Reference value :  5.20122e-06
 Reference value :  5.24835e-06
 Reference value :  5.25010e-06
 Reference value :  5.25011e-06
 Reference value :  5.25013e-06
 Reference value :  5.25017e-06
 Reference value :  5.25020e-06
 Reference value :  5.25020e-06
 Reference value :  5.25020e-06
 Reference value :  5.25021e-06
 Reference value :  5.25021e-06
 Reference value :  5.25022e-06
 Reference value :  5.25025e-06
 Reference value :  5.25030e-06
 Reference value :  5.25040e-06
 Reference value :  5.25059e-06
 Reference value :  5.25094e-06
 Reference value :  5.25154e-06
 Reference value :  5.25218e-06
 Reference value :  5.25294e-06
 Reference value :  5.25376e-06
 Reference value :  5.25482e-06
 Reference value :  5.25578e-06
 Reference value :  5.25687e-06
 Reference value :  5.25797e-06
 Reference value :  5.25904e-06
 Reference value :  5.26083e-06
 Reference value :  5.26257e-06
 Reference value :  5.26538e-06
 Reference value :  5.26892e-06
 Reference value :  5.27421e-06
 Reference value :  5.28479e-06
 Reference value :  5.30318e-06
 Reference value :  5.33670e-06
 Reference value :  5.40373e-06
 Reference value :  5.50000e-06
 Reference value :  5.50001e-06
 Reference value :  5.50003e-06
 Reference value :  5.50007e-06
 Reference value :  5.50010e-06
 Reference value :  5.50010e-06
 Reference value :  5.50011e-06
 Reference value :  5.50013e-06
 Reference value :  5.50016e-06
 Reference value :  5.50023e-06
 Reference value :  5.50037e-06
 Reference value :  5.50056e-06
 Reference value :  5.50093e-06
 Reference value :  5.50161e-06
 Reference value :  5.50223e-06
 Reference value :  5.50291e-06
 Reference value :  5.50362e-06
 Reference value :  5.50438e-06
 Reference value :  5.50523e-06
 Reference value :  5.50615e-06
 Reference value :  5.50718e-06
 Reference value :  5.50851e-06
 Reference value :  5.50990e-06
 Reference value :  5.51134e-06
 Reference value :  5.51292e-06
 Reference value :  5.51459e-06
 Reference value :  5.51617e-06
 Reference value :  5.51780e-06
 Reference value :  5.51959e-06
 Reference value :  5.52163e-06
 Reference value :  5.52528e-06
 Reference value :  5.53066e-06
 Reference value :  5.54108e-06
 Reference value :  5.56070e-06
 Reference value :  5.59771e-06
 Reference value :  5.67174e-06
 Reference value :  5.75010e-06
 Reference value :  5.75011e-06
 Reference value :  5.75013e-06
 Reference value :  5.75017e-06
 Reference value :  5.75020e-06
 Reference value :  5.75020e-06
 Reference value :  5.75020e-06
 Reference value :  5.75021e-06
 Reference value :  5.75021e-06
 Reference value :  5.75022e-06
 Reference value :  5.75025e-06
 Reference value :  5.75030e-06
 Reference value :  5.75039e-06
 Reference value :  5.75059e-06
 Reference value :  5.75093e-06
 Reference value :  5.75154e-06
 Reference value :  5.75216e-06
 Reference value :  5.75294e-06
 Reference value :  5.75375e-06
 Reference value :  5.75481e-06
 Reference value :  5.75574e-06
 Reference value :  5.75681e-06
 Reference value :  5.75776e-06
 Reference value :  5.75876e-06
 Reference value :  5.75989e-06
 Reference value :  5.76116e-06
 Reference value :  5.76370e-06
 Reference value :  5.76651e-06
 Reference value :  5.77102e-06
 Reference value :  5.77709e-06
 Reference value :  5.78923e-06
 Reference value :  5.81352e-06
 Reference value :  5.86210e-06
 Reference value :  5.95925e-06
 Reference value :  6.00000e-06
 Reference value :  6.00001e-06
 Reference value :  6.00003e-06
 Reference value :  6.00007e-06
 Reference value :  6.00010e-06
 Reference value :  6.00010e-06
 Reference value :  6.00011e-06
 Reference value :  6.00013e-06
 Reference value :  6.00016e-06
 Reference value :  6.00023e-06
 Reference value :  6.00037e-06
 Reference value :  6.00055e-06
 Reference value :  6.00092e-06
 Reference value :  6.00160e-06
 Reference value :  6.00223e-06
 Reference value :  6.00291e-06
 Reference value :  6.00363e-06
 Reference value :  6.00439e-06
 Reference value :  6.00523e-06
 Reference value :  6.00615e-06
 Reference value :  6.00710e-06
 Reference value :  6.00812e-06
 Reference value :  6.00897e-06
 Reference value :  6.00997e-06
 Reference value :  6.01099e-06
 Reference value :  6.01228e-06
 Reference value :  6.01424e-06
 Reference value :  6.01725e-06
 Reference value :  6.02029e-06
 Reference value :  6.02269e-06
 Reference value :  6.02473e-06
 Reference value :  6.02668e-06
 Reference value :  6.02868e-06
 Reference value :  6.03068e-06
 Reference value :  6.03291e-06
 Reference value :  6.03520e-06
 Reference value :  6.03859e-06
 Reference value :  6.04298e-06
 Reference value :  6.05069e-06
 Reference value :  6.05960e-06
 Reference value :  6.07044e-06
 Reference value :  6.08184e-06
 Reference value :  6.08985e-06
 Reference value :  6.09771e-06
 Reference value :  6.10815e-06
 Reference value :  6.11885e-06
 Reference value :  6.13326e-06
 Reference value :  6.15040e-06
 Reference value :  6.17148e-06
 Reference value :  6.18672e-06
 Reference value :  6.19965e-06
 Reference value :  6.21444e-06
 Reference value :  6.23056e-06
 Reference value :  6.24536e-06
 Reference value :  6.25010e-06
 Reference value :  6.25011e-06
 Reference value :  6.25013e-06
 Reference value :  6.25017e-06
 Reference value :  6.25020e-06
 Reference value :  6.25020e-06
 Reference value :  6.25020e-06
 Reference value :  6.25021e-06
 Reference value :  6.25021e-06
 Reference value :  6.25022e-06
 Reference value :  6.25025e-06
 Reference value :  6.25030e-06
 Reference value :  6.25039e-06
 Reference value :  6.25059e-06
 Reference value :  6.25092e-06
 Reference value :  6.25154e-06
 Reference value :  6.25216e-06
 Reference value :  6.25294e-06
 Reference value :  6.25375e-06
 Reference value :  6.25481e-06
 Reference value :  6.25578e-06
 Reference value :  6.25687e-06
 Reference value :  6.25797e-06
 Reference value :  6.25905e-06
 Reference value :  6.26082e-06
 Reference value :  6.26258e-06
 Reference value :  6.26539e-06
 Reference value :  6.26892e-06
 Reference value :  6.27422e-06
 Reference value :  6.28480e-06
 Reference value :  6.30323e-06
 Reference value :  6.33679e-06
 Reference value :  6.40391e-06
 Reference value :  6.50000e-06
 Reference value :  6.50001e-06
 Reference value :  6.50003e-06
 Reference value :  6.50007e-06
 Reference value :  6.50010e-06
 Reference value :  6.50010e-06
 Reference value :  6.50011e-06
 Reference value :  6.50013e-06
 Reference value :  6.50016e-06
 Reference value :  6.50023e-06
 Reference value :  6.50037e-06
 Reference value :  6.50056e-06
 Reference value :  6.50093e-06
 Reference value :  6.50161e-06
 Reference value :  6.50223e-06
 Reference value :  6.50291e-06
 Reference value :  6.50362e-06
 Reference value :  6.50438e-06
 Reference value :  6.50523e-06
 Reference value :  6.50615e-06
 Reference value :  6.50711e-06
 Reference value :  6.50847e-06
 Reference value :  6.50978e-06
 Reference value :  6.51142e-06
 Reference value :  6.51290e-06
 Reference value :  6.51445e-06
 Reference value :  6.51588e-06
 Reference value :  6.51747e-06
 Reference value :  6.51912e-06
 Reference value :  6.52102e-06
 Reference value :  6.52481e-06
 Reference value :  6.53048e-06
 Reference value :  6.54182e-06
 Reference value :  6.56450e-06
 Reference value :  6.60986e-06
 Reference value :  6.70059e-06
 Reference value :  6.75010e-06
 Reference value :  6.75011e-06
 Reference value :  6.75013e-06
 Reference value :  6.75017e-06
 Reference value :  6.75020e-06
 Reference value :  6.75020e-06
 Reference value :  6.75020e-06
 Reference value :  6.75021e-06
 Reference value :  6.75021e-06
 Reference value :  6.75022e-06
 Reference value :  6.75025e-06
 Reference value :  6.75030e-06
 Reference value :  6.75039e-06
 Reference value :  6.75059e-06
 Reference value :  6.75093e-06
 Reference value :  6.75154e-06
 Reference value :  6.75216e-06
 Reference value :  6.75294e-06
 Reference value :  6.75375e-06
 Reference value :  6.75481e-06
 Reference value :  6.75574e-06
 Reference value :  6.75681e-06
 Reference value :  6.75776e-06
 Reference value :  6.75875e-06
 Reference value :  6.75989e-06
 Reference value :  6.76116e-06
 Reference value :  6.76370e-06
 Reference value :  6.76650e-06
 Reference value :  6.77101e-06
 Reference value :  6.77707e-06
 Reference value :  6.78918e-06
 Reference value :  6.81340e-06
 Reference value :  6.86185e-06
 Reference value :  6.95874e-06
 Reference value :  7.00000e-06
 Reference value :  7.00001e-06
 Reference value :  7.00003e-06
 Reference value :  7.00007e-06
 Reference value :  7.00010e-06
 Reference value :  7.00010e-06
 Reference value :  7.00011e-06
 Reference value :  7.00013e-06
 Reference value :  7.00016e-06
 Reference value :  7.00023e-06
 Reference value :  7.00037e-06
 Reference value :  7.00055e-06
 Reference value :  7.00092e-06
 Reference value :  7.00160e-06
 Reference value :  7.00223e-06
 Reference value :  7.00291e-06
 Reference value :  7.00363e-06
 Reference value :  7.00439e-06
 Reference value :  7.00523e-06
 Reference value :  7.00615e-06
 Reference value :  7.00717e-06
 Reference value :  7.00818e-06
 Reference value :  7.00904e-06
 Reference value :  7.01006e-06
 Reference value :  7.01108e-06
 Reference value :  7.01240e-06
 Reference value :  7.01436e-06
 Reference value :  7.01723e-06
 Reference value :  7.02046e-06
 Reference value :  7.02288e-06
 Reference value :  7.02508e-06
 Reference value :  7.02725e-06
 Reference value :  7.02925e-06
 Reference value :  7.03145e-06
 Reference value :  7.03381e-06
 Reference value :  7.03638e-06
 Reference value :  7.03932e-06
 Reference value :  7.04387e-06
 Reference value :  7.04990e-06
 Reference value :  7.05652e-06
 Reference value :  7.06421e-06
 Reference value :  7.07227e-06
 Reference value :  7.07896e-06
 Reference value :  7.08594e-06
 Reference value :  7.09428e-06
 Reference value :  7.11098e-06
 Reference value :  7.12763e-06
 Reference value :  7.14459e-06
 Reference value :  7.16210e-06
 Reference value :  7.19711e-06
 Reference value :  7.25010e-06
 Reference value :  7.25011e-06
 Reference value :  7.25013e-06
 Reference value :  7.25017e-06
 Reference value :  7.25020e-06
 Reference value :  7.25020e-06
 Reference value :  7.25020e-06
 Reference value :  7.25021e-06
 Reference value :  7.25021e-06
 Reference value :  7.25022e-06
 Reference value :  7.25025e-06
 Reference value :  7.25030e-06
 Reference value :  7.25039e-06
 Reference value :  7.25059e-06
 Reference value :  7.25093e-06
 Reference value :  7.25154e-06
 Reference value :  7.25217e-06
 Reference value :  7.25294e-06
 Reference value :  7.25375e-06
 Reference value :  7.25482e-06
 Reference value :  7.25566e-06
 Reference value :  7.25666e-06
 Reference value :  7.25760e-06
 Reference value :  7.25860e-06
 Reference value :  7.26030e-06
 Reference value :  7.26185e-06
 Reference value :  7.26467e-06
 Reference value :  7.26764e-06
 Reference value :  7.27265e-06
 Reference value :  7.28079e-06
 Reference value :  7.29709e-06
 Reference value :  7.32967e-06
 Reference value :  7.39485e-06
 Reference value :  7.50000e-06
 Reference value :  7.50001e-06
 Reference value :  7.50003e-06
 Reference value :  7.50007e-06
 Reference value :  7.50010e-06
 Reference value :  7.50010e-06
 Reference value :  7.50011e-06
 Reference value :  7.50013e-06
 Reference value :  7.50016e-06
 Reference value :  7.50023e-06
 Reference value :  7.50037e-06
 Reference value :  7.50056e-06
 Reference value :  7.50093e-06
 Reference value :  7.50152e-06
 Reference value :  7.50214e-06
 Reference value :  7.50278e-06
 Reference value :  7.50356e-06
 Reference value :  7.50429e-06
 Reference value :  7.50514e-06
 Reference value :  7.50604e-06
 Reference value :  7.50709e-06
 Reference value :  7.50845e-06
 Reference value :  7.50982e-06
 Reference value :  7.51142e-06
 Reference value :  7.51279e-06
 Reference value :  7.51425e-06
 Reference value :  7.51568e-06
 Reference value :  7.51738e-06
 Reference value :  7.51916e-06
 Reference value :  7.52103e-06
 Reference value :  7.52477e-06
 Reference value :  7.53226e-06
 Reference value :  7.54516e-06
 Reference value :  7.57095e-06
 Reference value :  7.62254e-06
 Reference value :  7.72572e-06
 Reference value :  7.75010e-06
 Reference value :  7.75011e-06
 Reference value :  7.75013e-06
 Reference value :  7.75017e-06
 Reference value :  7.75020e-06
 Reference value :  7.75020e-06
 Reference value :  7.75020e-06
 Reference value :  7.75021e-06
 Reference value :  7.75021e-06
 Reference value :  7.75022e-06
 Reference value :  7.75025e-06
 Reference value :  7.75030e-06
 Reference value :  7.75039e-06
 Reference value :  7.75059e-06
 Reference value :  7.75093e-06
 Reference value :  7.75154e-06
 Reference value :  7.75217e-06
 Reference value :  7.75294e-06
 Reference value :  7.75375e-06
 Reference value :  7.75482e-06
 Reference value :  7.75571e-06
 Reference value :  7.75676e-06
 Reference value :  7.75767e-06
 Reference value :  7.75865e-06
 Reference value :  7.75977e-06
 Reference value :  7.76103e-06
 Reference value :  7.76230e-06
 Reference value :  7.76411e-06
 Reference value :  7.76619e-06
 Reference value :  7.76894e-06
 Reference value :  7.77245e-06
 Reference value :  7.77745e-06
 Reference value :  7.78746e-06
 Reference value :  7.80249e-06
 Reference value :  7.83254e-06
 Reference value :  7.89265e-06
 Reference value :  8.00000e-06
 Reference value :  8.00001e-06
 Reference value :  8.00003e-06
 Reference value :  8.00007e-06
 Reference value :  8.00010e-06
 Reference value :  8.00010e-06
 Reference value :  8.00011e-06
 Reference value :  8.00013e-06
 Reference value :  8.00016e-06
 Reference value :  8.00023e-06
 Reference value :  8.00037e-06
 Reference value :  8.00055e-06
 Reference value :  8.00092e-06
 Reference value :  8.00151e-06
 Reference value :  8.00214e-06
 Reference value :  8.00283e-06
 Reference value :  8.00356e-06
 Reference value :  8.00432e-06
 Reference value :  8.00516e-06
 Reference value :  8.00606e-06
 Reference value :  8.00699e-06
 Reference value :  8.00784e-06
 Reference value :  8.00873e-06
 Reference value :  8.00970e-06
 Reference value :  8.01068e-06
 Reference value :  8.01209e-06
 Reference value :  8.01357e-06
 Reference value :  8.01575e-06
 Reference value :  8.01725e-06
 Reference value :  8.01894e-06
 Reference value :  8.02106e-06
 Reference value :  8.02313e-06
 Reference value :  8.02576e-06
 Reference value :  8.02822e-06
 Reference value :  8.03199e-06
 Reference value :  8.03548e-06
 Reference value :  8.04142e-06
 Reference value :  8.04708e-06
 Reference value :  8.05622e-06
 Reference value :  8.06174e-06
 Reference value :  8.06749e-06
 Reference value :  8.07602e-06
 Reference value :  8.08369e-06
 Reference value :  8.09228e-06
 Reference value :  8.10947e-06
 Reference value :  8.13100e-06
 Reference value :  8.16648e-06
 Reference value :  8.22226e-06
 Reference value :  8.25010e-06
 Reference value :  8.25011e-06
 Reference value :  8.25013e-06
 Reference value :  8.25017e-06
 Reference value :  8.25020e-06
 Reference value :  8.25020e-06
 Reference value :  8.25020e-06
 Reference value :  8.25021e-06
 Reference value :  8.25021e-06
 Reference value :  8.25022e-06
 Reference value :  8.25025e-06
 Reference value :  8.25030e-06
 Reference value :  8.25039e-06
 Reference value :  8.25059e-06
 Reference value :  8.25097e-06
 Reference value :  8.25154e-06
 Reference value :  8.25221e-06
 Reference value :  8.25295e-06
 Reference value :  8.25379e-06
 Reference value :  8.25485e-06
 Reference value :  8.25616e-06
 Reference value :  8.25753e-06
 Reference value :  8.25911e-06
 Reference value :  8.26083e-06
 Reference value :  8.26340e-06
 Reference value :  8.26637e-06
 Reference value :  8.27042e-06
 Reference value :  8.27625e-06
 Reference value :  8.28792e-06
 Reference value :  8.31125e-06
 Reference value :  8.35753e-06
 Reference value :  8.45008e-06
 Reference value :  8.50000e-06
 Reference value :  8.50001e-06
 Reference value :  8.50003e-06
 Reference value :  8.50007e-06
 Reference value :  8.50010e-06
 Reference value :  8.50010e-06
 Reference value :  8.50011e-06
 Reference value :  8.50013e-06
 Reference value :  8.50016e-06
 Reference value :  8.50023e-06
 Reference value :  8.50037e-06
 Reference value :  8.50064e-06
 Reference value :  8.50111e-06
 Reference value :  8.50187e-06
 Reference value :  8.50271e-06
 Reference value :  8.50338e-06
 Reference value :  8.50424e-06
 Reference value :  8.50514e-06
 Reference value :  8.50606e-06
 Reference value :  8.50708e-06
 Reference value :  8.50859e-06
 Reference value :  8.51017e-06
 Reference value :  8.51269e-06
 Reference value :  8.51434e-06
 Reference value :  8.51623e-06
 Reference value :  8.51914e-06
 Reference value :  8.52188e-06
 Reference value :  8.52525e-06
 Reference value :  8.53198e-06
 Reference value :  8.53866e-06
 Reference value :  8.54352e-06
 Reference value :  8.54748e-06
 Reference value :  8.55119e-06
 Reference value :  8.55439e-06
 Reference value :  8.55689e-06
 Reference value :  8.55958e-06
 Reference value :  8.56237e-06
 Reference value :  8.56630e-06
 Reference value :  8.57075e-06
 Reference value :  8.57550e-06
 Reference value :  8.58073e-06
 Reference value :  8.58836e-06
 Reference value :  8.59793e-06
 Reference value :  8.61095e-06
 Reference value :  8.62882e-06
 Reference value :  8.64739e-06
 Reference value :  8.67832e-06
 Reference value :  8.71601e-06
 Reference value :  8.75010e-06
 Reference value :  8.75011e-06
 Reference value :  8.75013e-06
 Reference value :  8.75017e-06
 Reference value :  8.75020e-06
 Reference value :  8.75020e-06
 Reference value :  8.75020e-06
 Reference value :  8.75021e-06
 Reference value :  8.75021e-06
 Reference value :  8.75022e-06
 Reference value :  8.75025e-06
 Reference value :  8.75030e-06
 Reference value :  8.75039e-06
 Reference value :  8.75059e-06
 Reference value :  8.75097e-06
 Reference value :  8.75155e-06
 Reference value :  8.75222e-06
 Reference value :  8.75299e-06
 Reference value :  8.75379e-06
 Reference value :  8.75491e-06
 Reference value :  8.75586e-06
 Reference value :  8.75693e-06
 Reference value :  8.75794e-06
 Reference value :  8.75899e-06
 Reference value :  8.76068e-06
 Reference value :  8.76238e-06
 Reference value :  8.76510e-06
 Reference value :  8.76857e-06
 Reference value :  8.77364e-06
 Reference value :  8.78378e-06
 Reference value :  8.80112e-06
 Reference value :  8.83237e-06
 Reference value :  8.89393e-06
 Reference value :  8.98102e-06
 Reference value :  9.00000e-06
 Reference value :  9.00001e-06
 Reference value :  9.00003e-06
 Reference value :  9.00007e-06
 Reference value :  9.00010e-06
 Reference value :  9.00010e-06
 Reference value :  9.00011e-06
 Reference value :  9.00013e-06
 Reference value :  9.00016e-06
 Reference value :  9.00023e-06
 Reference value :  9.00037e-06
 Reference value :  9.00056e-06
 Reference value :  9.00094e-06
 Reference value :  9.00153e-06
 Reference value :  9.00216e-06
 Reference value :  9.00286e-06
 Reference value :  9.00368e-06
 Reference value :  9.00443e-06
 Reference value :  9.00531e-06
 Reference value :  9.00625e-06
 Reference value :  9.00722e-06
 Reference value :  9.00866e-06
 Reference value :  9.01003e-06
 Reference value :  9.01255e-06
 Reference value :  9.01560e-06
 Reference value :  9.01778e-06
 Reference value :  9.02027e-06
 Reference value :  9.02271e-06
 Reference value :  9.02528e-06
 Reference value :  9.02840e-06
 Reference value :  9.03325e-06
 Reference value :  9.04000e-06
 Reference value :  9.04973e-06
 Reference value :  9.06918e-06
 Reference value :  9.09733e-06
 Reference value :  9.14908e-06
 Reference value :  9.24932e-06
 Reference value :  9.25010e-06
 Reference value :  9.25011e-06
 Reference value :  9.25013e-06
 Reference value :  9.25017e-06
 Reference value :  9.25020e-06
 Reference value :  9.25020e-06
 Reference value :  9.25020e-06
 Reference value :  9.25021e-06
 Reference value :  9.25021e-06
 Reference value :  9.25022e-06
 Reference value :  9.25025e-06
 Reference value :  9.25030e-06
 Reference value :  9.25040e-06
 Reference value :  9.25059e-06
 Reference value :  9.25098e-06
 Reference value :  9.25157e-06
 Reference value :  9.25224e-06
 Reference value :  9.25299e-06
 Reference value :  9.25383e-06
 Reference value :  9.25492e-06
 Reference value :  9.25581e-06
 Reference value :  9.25686e-06
 Reference value :  9.25777e-06
 Reference value :  9.25874e-06
 Reference value :  9.25991e-06
 Reference value :  9.26119e-06
 Reference value :  9.26376e-06
 Reference value :  9.26656e-06
 Reference value :  9.27108e-06
 Reference value :  9.27714e-06
 Reference value :  9.28927e-06
 Reference value :  9.31351e-06
 Reference value :  9.36201e-06
 Reference value :  9.45900e-06
 Reference value :  9.50000e-06
 Reference value :  9.50001e-06
 Reference value :  9.50003e-06
 Reference value :  9.50007e-06
 Reference value :  9.50010e-06
 Reference value :  9.50010e-06
 Reference value :  9.50011e-06
 Reference value :  9.50013e-06
 Reference value :  9.50016e-06
 Reference value :  9.50023e-06
 Reference value :  9.50037e-06
 Reference value :  9.50056e-06
 Reference value :  9.50094e-06
 Reference value :  9.50153e-06
 Reference value :  9.50216e-06
 Reference value :  9.50285e-06
 Reference value :  9.50357e-06
 Reference value :  9.50432e-06
 Reference value :  9.50516e-06
 Reference value :  9.50607e-06
 Reference value :  9.50702e-06
 Reference value :  9.50795e-06
 Reference value :  9.50904e-06
 Reference value :  9.51001e-06
 Reference value :  9.51108e-06
 Reference value :  9.51259e-06
 Reference value :  9.51428e-06
 Reference value :  9.51717e-06
 Reference value :  9.52013e-06
 Reference value :  9.52249e-06
 Reference value :  9.52463e-06
 Reference value :  9.52616e-06
 Reference value :  9.52772e-06
 Reference value :  9.52918e-06
 Reference value :  9.53075e-06
 Reference value :  9.53252e-06
 Reference value :  9.53500e-06
 Reference value :  9.53756e-06
 Reference value :  9.54220e-06
 Reference value :  9.54897e-06
 Reference value :  9.55937e-06
 Reference value :  9.57684e-06
 Reference value :  9.60465e-06
 Reference value :  9.64409e-06
 Reference value :  9.69063e-06
 Reference value :  9.73580e-06
 Reference value :  9.75010e-06
 Reference value :  9.75011e-06
 Reference value :  9.75013e-06
 Reference value :  9.75017e-06
 Reference value :  9.75020e-06
 Reference value :  9.75020e-06
 Reference value :  9.75020e-06
 Reference value :  9.75021e-06
 Reference value :  9.75021e-06
 Reference value :  9.75022e-06
 Reference value :  9.75025e-06
 Reference value :  9.75030e-06
 Reference value :  9.75039e-06
 Reference value :  9.75059e-06
 Reference value :  9.75092e-06
 Reference value :  9.75155e-06
 Reference value :  9.75216e-06
 Reference value :  9.75295e-06
 Reference value :  9.75376e-06
 Reference value :  9.75484e-06
 Reference value :  9.75572e-06
 Reference value :  9.75674e-06
 Reference value :  9.75772e-06
 Reference value :  9.75874e-06
 Reference value :  9.76044e-06
 Reference value :  9.76205e-06
 Reference value :  9.76490e-06
 Reference value :  9.76802e-06
 Reference value :  9.77306e-06
 Reference value :  9.78237e-06
 Reference value :  9.80099e-06
 Reference value :  9.83733e-06
 Reference value :  9.91001e-06
 Reference value :  1.00000e-05
 Reference value :  1.00000e-05
 Reference value :  1.00000e-05
 Reference value :  1.00001e-05
 Reference value :  1.00001e-05
 Reference value :  1.00001e-05
 Reference value :  1.00001e-05
 Reference value :  1.00001e-05
 Reference value :  1.00002e-05
 Reference value :  1.00002e-05
 Reference value :  1.00004e-05
 Reference value :  1.00006e-05
 Reference value :  1.00009e-05
 Reference value :  1.00016e-05
 Reference value :  1.00022e-05
 Reference value :  1.00029e-05
 Reference value :  1.00036e-05
 Reference value :  1.00043e-05
 Reference value :  1.00052e-05
 Reference value :  1.00061e-05
 Reference value :  1.00071e-05
 Reference value :  1.00085e-05
 Reference value :  1.00098e-05
 Reference value :  1.00114e-05
 Reference value :  1.00128e-05
 Reference value :  1.00143e-05
 Reference value :  1.00163e-05
 Reference value :  1.00182e-05
 Reference value :  1.00202e-05
 Reference value :  1.00234e-05
 Reference value :  1.00262e-05
 Reference value :  1.00317e-05
 Reference value :  1.00391e-05
 Reference value :  1.00511e-05
 Reference value :  1.00722e-05
 Reference value :  1.01056e-05
 Reference value :  1.01657e-05
 Reference value :  1.02501e-05
 Reference value :  1.02501e-05
 Reference value :  1.02501e-05
 Reference value :  1.02502e-05
 Reference value :  1.02502e-05
 Reference value :  1.02502e-05
 Reference value :  1.02502e-05
 Reference value :  1.02502e-05
 Reference value :  1.02502e-05
 Reference value :  1.02502e-05
 Reference value :  1.02502e-05
 Reference value :  1.02503e-05
 Reference value :  1.02504e-05
 Reference value :  1.02506e-05
 Reference value :  1.02509e-05
 Reference value :  1.02516e-05
 Reference value :  1.02522e-05
 Reference value :  1.02530e-05
 Reference value :  1.02538e-05
 Reference value :  1.02548e-05
 Reference value :  1.02558e-05
 Reference value :  1.02568e-05
 Reference value :  1.02577e-05
 Reference value :  1.02587e-05
 Reference value :  1.02599e-05
 Reference value :  1.02611e-05
 Reference value :  1.02625e-05
 Reference value :  1.02642e-05
 Reference value :  1.02665e-05
 Reference value :  1.02692e-05
 Reference value :  1.02729e-05
 Reference value :  1.02781e-05
 Reference value :  1.02884e-05
 Reference value :  1.03060e-05
 Reference value :  1.03414e-05
 Reference value :  1.04120e-05
 Reference value :  1.05000e-05
 Reference value :  1.05000e-05
 Reference value :  1.05000e-05
 Reference value :  1.05001e-05
 Reference value :  1.05001e-05
 Reference value :  1.05001e-05
 Reference value :  1.05001e-05
 Reference value :  1.05001e-05
 Reference value :  1.05002e-05
 Reference value :  1.05002e-05
 Reference value :  1.05004e-05
 Reference value :  1.05006e-05
 Reference value :  1.05009e-05
 Reference value :  1.05016e-05
 Reference value :  1.05022e-05
 Reference value :  1.05029e-05
 Reference value :  1.05036e-05
 Reference value :  1.05044e-05
 Reference value :  1.05052e-05
 Reference value :  1.05061e-05
 Reference value :  1.05070e-05
 Reference value :  1.05079e-05
 Reference value :  1.05087e-05
 Reference value :  1.05097e-05
 Reference value :  1.05106e-05
 Reference value :  1.05118e-05
 Reference value :  1.05131e-05
 Reference value :  1.05154e-05
 Reference value :  1.05179e-05
 Reference value :  1.05197e-05
 Reference value :  1.05218e-05
 Reference value :  1.05237e-05
 Reference value :  1.05252e-05
 Reference value :  1.05266e-05
 Reference value :  1.05280e-05
 Reference value :  1.05296e-05
 Reference value :  1.05315e-05
 Reference value :  1.05332e-05
 Reference value :  1.05360e-05
 Reference value :  1.05388e-05
 Reference value :  1.05446e-05
 Reference value :  1.05533e-05
 Reference value :  1.05674e-05
 Reference value :  1.05883e-05
 Reference value :  1.06080e-05
 Reference value :  1.06255e-05
 Reference value :  1.06397e-05
 Reference value :  1.06466e-05
 Reference value :  1.06529e-05
 Reference value :  1.06591e-05
 Reference value :  1.06706e-05
 Reference value :  1.06846e-05
 Reference value :  1.07060e-05
 Reference value :  1.07380e-05
 Reference value :  1.07501e-05
 Reference value :  1.07501e-05
 Reference value :  1.07501e-05
 Reference value :  1.07502e-05
 Reference value :  1.07502e-05
 Reference value :  1.07502e-05
 Reference value :  1.07502e-05
 Reference value :  1.07502e-05
 Reference value :  1.07502e-05
 Reference value :  1.07502e-05
 Reference value :  1.07502e-05
 Reference value :  1.07503e-05
 Reference value :  1.07504e-05
 Reference value :  1.07506e-05
 Reference value :  1.07509e-05
 Reference value :  1.07515e-05
 Reference value :  1.07522e-05
 Reference value :  1.07529e-05
 Reference value :  1.07538e-05
 Reference value :  1.07548e-05
 Reference value :  1.07558e-05
 Reference value :  1.07569e-05
 Reference value :  1.07580e-05
 Reference value :  1.07591e-05
 Reference value :  1.07608e-05
 Reference value :  1.07626e-05
 Reference value :  1.07654e-05
 Reference value :  1.07689e-05
 Reference value :  1.07742e-05
 Reference value :  1.07848e-05
 Reference value :  1.08030e-05
 Reference value :  1.08362e-05
 Reference value :  1.09026e-05
 Reference value :  1.09670e-05
 Reference value :  1.10000e-05
 Reference value :  1.10000e-05
 Reference value :  1.10000e-05
 Reference value :  1.10001e-05
 Reference value :  1.10001e-05
 Reference value :  1.10001e-05
 Reference value :  1.10001e-05
 Reference value :  1.10001e-05
 Reference value :  1.10002e-05
 Reference value :  1.10002e-05
 Reference value :  1.10004e-05
 Reference value :  1.10006e-05
 Reference value :  1.10009e-05
 Reference value :  1.10016e-05
 Reference value :  1.10022e-05
 Reference value :  1.10029e-05
 Reference value :  1.10036e-05
 Reference value :  1.10044e-05
 Reference value :  1.10052e-05
 Reference value :  1.10062e-05
 Reference value :  1.10072e-05
 Reference value :  1.10085e-05
 Reference value :  1.10099e-05
 Reference value :  1.10115e-05
 Reference value :  1.10130e-05
 Reference value :  1.10146e-05
 Reference value :  1.10166e-05
 Reference value :  1.10183e-05
 Reference value :  1.10203e-05
 Reference value :  1.10224e-05
 Reference value :  1.10266e-05
 Reference value :  1.10348e-05
 Reference value :  1.10485e-05
 Reference value :  1.10758e-05
 Reference value :  1.11305e-05
 Reference value :  1.12398e-05
 Reference value :  1.12501e-05
 Reference value :  1.12501e-05
 Reference value :  1.12501e-05
 Reference value :  1.12502e-05
 Reference value :  1.12502e-05
 Reference value :  1.12502e-05
 Reference value :  1.12502e-05
 Reference value :  1.12502e-05
 Reference value :  1.12502e-05
 Reference value :  1.12502e-05
 Reference value :  1.12502e-05
 Reference value :  1.12503e-05
 Reference value :  1.12504e-05
 Reference value :  1.12506e-05
 Reference value :  1.12509e-05
 Reference value :  1.12515e-05
 Reference value :  1.12522e-05
 Reference value :  1.12529e-05
 Reference value :  1.12538e-05
 Reference value :  1.12548e-05
 Reference value :  1.12558e-05
 Reference value :  1.12568e-05
 Reference value :  1.12578e-05
 Reference value :  1.12588e-05
 Reference value :  1.12599e-05
 Reference value :  1.12612e-05
 Reference value :  1.12637e-05
 Reference value :  1.12665e-05
 Reference value :  1.12711e-05
 Reference value :  1.12772e-05
 Reference value :  1.12894e-05
 Reference value :  1.13138e-05
 Reference value :  1.13627e-05
 Reference value :  1.14604e-05
 Reference value :  1.15000e-05
 Reference value :  1.15000e-05
 Reference value :  1.15000e-05
 Reference value :  1.15001e-05
 Reference value :  1.15001e-05
 Reference value :  1.15001e-05
 Reference value :  1.15001e-05
 Reference value :  1.15001e-05
 Reference value :  1.15002e-05
 Reference value :  1.15002e-05
 Reference value :  1.15004e-05
 Reference value :  1.15006e-05
 Reference value :  1.15009e-05
 Reference value :  1.15016e-05
 Reference value :  1.15022e-05
 Reference value :  1.15029e-05
 Reference value :  1.15036e-05
 Reference value :  1.15044e-05
 Reference value :  1.15052e-05
 Reference value :  1.15061e-05
 Reference value :  1.15071e-05
 Reference value :  1.15081e-05
 Reference value :  1.15092e-05
 Reference value :  1.15102e-05
 Reference value :  1.15113e-05
 Reference value :  1.15127e-05
 Reference value :  1.15145e-05
 Reference value :  1.15175e-05
 Reference value :  1.15203e-05
 Reference value :  1.15227e-05
 Reference value :  1.15246e-05
 Reference value :  1.15264e-05
 Reference value :  1.15284e-05
 Reference value :  1.15303e-05
 Reference value :  1.15325e-05
 Reference value :  1.15348e-05
 Reference value :  1.15382e-05
 Reference value :  1.15423e-05
 Reference value :  1.15501e-05
 Reference value :  1.15623e-05
 Reference value :  1.15755e-05
 Reference value :  1.15885e-05
 Reference value :  1.15980e-05
 Reference value :  1.16074e-05
 Reference value :  1.16155e-05
 Reference value :  1.16233e-05
 Reference value :  1.16315e-05
 Reference value :  1.16396e-05
 Reference value :  1.16559e-05
 Reference value :  1.16747e-05
 Reference value :  1.17049e-05
 Reference value :  1.17500e-05
 Reference value :  1.17501e-05
 Reference value :  1.17501e-05
 Reference value :  1.17501e-05
 Reference value :  1.17501e-05
 Reference value :  1.17502e-05
 Reference value :  1.17502e-05
 Reference value :  1.17502e-05
 Reference value :  1.17502e-05
 Reference value :  1.17502e-05
 Reference value :  1.17502e-05
 Reference value :  1.17503e-05
 Reference value :  1.17504e-05
 Reference value :  1.17506e-05
 Reference value :  1.17509e-05
 Reference value :  1.17516e-05
 Reference value :  1.17522e-05
 Reference value :  1.17529e-05
 Reference value :  1.17538e-05
 Reference value :  1.17549e-05
 Reference value :  1.17557e-05
 Reference value :  1.17567e-05
 Reference value :  1.17577e-05
 Reference value :  1.17587e-05
 Reference value :  1.17604e-05
 Reference value :  1.17620e-05
 Reference value :  1.17648e-05
 Reference value :  1.17678e-05
 Reference value :  1.17728e-05
 Reference value :  1.17815e-05
 Reference value :  1.17989e-05
 Reference value :  1.18337e-05
 Reference value :  1.19033e-05
 Reference value :  1.20000e-05
 Reference value :  1.20000e-05
 Reference value :  1.20000e-05
 Reference value :  1.20001e-05
 Reference value :  1.20001e-05
 Reference value :  1.20001e-05
 Reference value :  1.20001e-05
 Reference value :  1.20001e-05
 Reference value :  1.20002e-05
 Reference value :  1.20002e-05
 Reference value :  1.20004e-05
 Reference value :  1.20006e-05
 Reference value :  1.20009e-05
 Reference value :  1.20016e-05
 Reference value :  1.20022e-05
 Reference value :  1.20029e-05
 Reference value :  1.20036e-05
 Reference value :  1.20043e-05
 Reference value :  1.20052e-05
 Reference value :  1.20061e-05
 Reference value :  1.20070e-05
 Reference value :  1.20084e-05
 Reference value :  1.20097e-05
 Reference value :  1.20112e-05
 Reference value :  1.20125e-05
 Reference value :  1.20139e-05
 Reference value :  1.20157e-05
 Reference value :  1.20176e-05
 Reference value :  1.20195e-05
 Reference value :  1.20223e-05
 Reference value :  1.20251e-05
 Reference value :  1.20301e-05
 Reference value :  1.20374e-05
 Reference value :  1.20494e-05
 Reference value :  1.20710e-05
 Reference value :  1.21065e-05
 Reference value :  1.21714e-05
 Reference value :  1.22501e-05
 Reference value :  1.22501e-05
 Reference value :  1.22501e-05
 Reference value :  1.22502e-05
 Reference value :  1.22502e-05
 Reference value :  1.22502e-05
 Reference value :  1.22502e-05
 Reference value :  1.22502e-05
 Reference value :  1.22502e-05
 Reference value :  1.22502e-05
 Reference value :  1.22502e-05
 Reference value :  1.22503e-05
 Reference value :  1.22504e-05
 Reference value :  1.22506e-05
 Reference value :  1.22509e-05
 Reference value :  1.22515e-05
 Reference value :  1.22522e-05
 Reference value :  1.22529e-05
 Reference value :  1.22538e-05
 Reference value :  1.22548e-05
 Reference value :  1.22557e-05
 Reference value :  1.22568e-05
 Reference value :  1.22577e-05
 Reference value :  1.22587e-05
 Reference value :  1.22599e-05
 Reference value :  1.22611e-05
 Reference value :  1.22624e-05
 Reference value :  1.22642e-05
 Reference value :  1.22663e-05
 Reference value :  1.22691e-05
 Reference value :  1.22727e-05
 Reference value :  1.22778e-05
 Reference value :  1.22879e-05
 Reference value :  1.23037e-05
 Reference value :  1.23351e-05
 Reference value :  1.23981e-05
 Reference value :  1.25000e-05
 Reference value :  1.25000e-05
 Reference value :  1.25000e-05
 Reference value :  1.25001e-05
 Reference value :  1.25001e-05
 Reference value :  1.25001e-05
 Reference value :  1.25001e-05
 Reference value :  1.25001e-05
 Reference value :  1.25002e-05
 Reference value :  1.25002e-05
 Reference value :  1.25004e-05
 Reference value :  1.25006e-05
 Reference value :  1.25009e-05
 Reference value :  1.25016e-05
 Reference value :  1.25022e-05
 Reference value :  1.25029e-05
 Reference value :  1.25036e-05
 Reference value :  1.25044e-05
 Reference value :  1.25052e-05
 Reference value :  1.25061e-05
 Reference value :  1.25070e-05
 Reference value :  1.25079e-05
 Reference value :  1.25088e-05
 Reference value :  1.25097e-05
 Reference value :  1.25107e-05
 Reference value :  1.25120e-05
 Reference value :  1.25133e-05
 Reference value :  1.25156e-05
 Reference value :  1.25172e-05
 Reference value :  1.25189e-05
 Reference value :  1.25205e-05
 Reference value :  1.25223e-05
 Reference value :  1.25236e-05
 Reference value :  1.25248e-05
 Reference value :  1.25265e-05
 Reference value :  1.25280e-05
 Reference value :  1.25297e-05
 Reference value :  1.25315e-05
 Reference value :  1.25334e-05
 Reference value :  1.25364e-05
 Reference value :  1.25398e-05
 Reference value :  1.25433e-05
 Reference value :  1.25470e-05
 Reference value :  1.25496e-05
 Reference value :  1.25524e-05
 Reference value :  1.25550e-05
 Reference value :  1.25587e-05
 Reference value :  1.25641e-05
 Reference value :  1.25711e-05
 Reference value :  1.25810e-05
 Reference value :  1.25962e-05
 Reference value :  1.26197e-05
 Reference value :  1.26440e-05
 Reference value :  1.26710e-05
 Reference value :  1.26994e-05
 Reference value :  1.27427e-05
 Reference value :  1.27501e-05
 Reference value :  1.27501e-05
 Reference value :  1.27501e-05
 Reference value :  1.27502e-05
 Reference value :  1.27502e-05
 Reference value :  1.27502e-05
 Reference value :  1.27502e-05
 Reference value :  1.27502e-05
 Reference value :  1.27502e-05
 Reference value :  1.27502e-05
 Reference value :  1.27502e-05
 Reference value :  1.27503e-05
 Reference value :  1.27504e-05
 Reference value :  1.27506e-05
 Reference value :  1.27509e-05
 Reference value :  1.27515e-05
 Reference value :  1.27522e-05
 Reference value :  1.27529e-05
 Reference value :  1.27538e-05
 Reference value :  1.27548e-05
 Reference value :  1.27558e-05
 Reference value :  1.27569e-05
 Reference value :  1.27580e-05
 Reference value :  1.27590e-05
 Reference value :  1.27608e-05
 Reference value :  1.27626e-05
 Reference value :  1.27654e-05
 Reference value :  1.27689e-05
 Reference value :  1.27742e-05
 Reference value :  1.27847e-05
 Reference value :  1.28031e-05
 Reference value :  1.28365e-05
 Reference value :  1.29034e-05
 Reference value :  1.30000e-05
 Reference value :  1.30000e-05
 Reference value :  1.30000e-05
 Reference value :  1.30001e-05
 Reference value :  1.30001e-05
 Reference value :  1.30001e-05
 Reference value :  1.30001e-05
 Reference value :  1.30001e-05
 Reference value :  1.30002e-05
 Reference value :  1.30002e-05
 Reference value :  1.30004e-05
 Reference value :  1.30006e-05
 Reference value :  1.30009e-05
 Reference value :  1.30016e-05
 Reference value :  1.30022e-05
 Reference value :  1.30029e-05
 Reference value :  1.30036e-05
 Reference value :  1.30044e-05
 Reference value :  1.30052e-05
 Reference value :  1.30061e-05
 Reference value :  1.30071e-05
 Reference value :  1.30085e-05
 Reference value :  1.30098e-05
 Reference value :  1.30113e-05
 Reference value :  1.30130e-05
 Reference value :  1.30145e-05
 Reference value :  1.30160e-05
 Reference value :  1.30176e-05
 Reference value :  1.30193e-05
 Reference value :  1.30212e-05
 Reference value :  1.30250e-05
 Reference value :  1.30305e-05
 Reference value :  1.30415e-05
 Reference value :  1.30634e-05
 Reference value :  1.31067e-05
 Reference value :  1.31931e-05
 Reference value :  1.32501e-05
 Reference value :  1.32501e-05
 Reference value :  1.32501e-05
 Reference value :  1.32502e-05
 Reference value :  1.32502e-05
 Reference value :  1.32502e-05
 Reference value :  1.32502e-05
 Reference value :  1.32502e-05
 Reference value :  1.32502e-05
 Reference value :  1.32502e-05
 Reference value :  1.32502e-05
 Reference value :  1.32503e-05
 Reference value :  1.32504e-05
 Reference value :  1.32506e-05
 Reference value :  1.32509e-05
 Reference value :  1.32515e-05
 Reference value :  1.32522e-05
 Reference value :  1.32529e-05
 Reference value :  1.32537e-05
 Reference value :  1.32548e-05
 Reference value :  1.32557e-05
 Reference value :  1.32568e-05
 Reference value :  1.32578e-05
 Reference value :  1.32588e-05
 Reference value :  1.32599e-05
 Reference value :  1.32612e-05
 Reference value :  1.32637e-05
 Reference value :  1.32665e-05
 Reference value :  1.32711e-05
 Reference value :  1.32772e-05
 Reference value :  1.32895e-05
 Reference value :  1.33140e-05
 Reference value :  1.33630e-05
 Reference value :  1.34611e-05
 Reference value :  1.35000e-05
 Reference value :  1.35000e-05
 Reference value :  1.35000e-05
 Reference value :  1.35001e-05
 Reference value :  1.35001e-05
 Reference value :  1.35001e-05
 Reference value :  1.35001e-05
 Reference value :  1.35001e-05
 Reference value :  1.35002e-05
 Reference value :  1.35002e-05
 Reference value :  1.35004e-05
 Reference value :  1.35006e-05
 Reference value :  1.35009e-05
 Reference value :  1.35016e-05
 Reference value :  1.35022e-05
 Reference value :  1.35029e-05
 Reference value :  1.35036e-05
 Reference value :  1.35044e-05
 Reference value :  1.35053e-05
 Reference value :  1.35062e-05
 Reference value :  1.35072e-05
 Reference value :  1.35082e-05
 Reference value :  1.35091e-05
 Reference value :  1.35101e-05
 Reference value :  1.35112e-05
 Reference value :  1.35125e-05
 Reference value :  1.35144e-05
 Reference value :  1.35173e-05
 Reference value :  1.35203e-05
 Reference value :  1.35227e-05
 Reference value :  1.35246e-05
 Reference value :  1.35264e-05
 Reference value :  1.35284e-05
 Reference value :  1.35303e-05
 Reference value :  1.35326e-05
 Reference value :  1.35350e-05
 Reference value :  1.35383e-05
 Reference value :  1.35424e-05
 Reference value :  1.35497e-05
 Reference value :  1.35579e-05
 Reference value :  1.35656e-05
 Reference value :  1.35741e-05
 Reference value :  1.35822e-05
 Reference value :  1.35899e-05
 Reference value :  1.35988e-05
 Reference value :  1.36069e-05
 Reference value :  1.36137e-05
 Reference value :  1.36229e-05
 Reference value :  1.36353e-05
 Reference value :  1.36539e-05
 Reference value :  1.36808e-05
 Reference value :  1.37058e-05
 Reference value :  1.37295e-05
 Reference value :  1.37440e-05
 Reference value :  1.37501e-05
 Reference value :  1.37501e-05
 Reference value :  1.37501e-05
 Reference value :  1.37502e-05
 Reference value :  1.37502e-05
 Reference value :  1.37502e-05
 Reference value :  1.37502e-05
 Reference value :  1.37502e-05
 Reference value :  1.37502e-05
 Reference value :  1.37502e-05
 Reference value :  1.37502e-05
 Reference value :  1.37503e-05
 Reference value :  1.37504e-05
 Reference value :  1.37506e-05
 Reference value :  1.37509e-05
 Reference value :  1.37515e-05
 Reference value :  1.37522e-05
 Reference value :  1.37529e-05
 Reference value :  1.37537e-05
 Reference value :  1.37548e-05
 Reference value :  1.37558e-05
 Reference value :  1.37569e-05
 Reference value :  1.37580e-05
 Reference value :  1.37590e-05
 Reference value :  1.37608e-05
 Reference value :  1.37626e-05
 Reference value :  1.37654e-05
 Reference value :  1.37689e-05
 Reference value :  1.37742e-05
 Reference value :  1.37848e-05
 Reference value :  1.38031e-05
 Reference value :  1.38366e-05
 Reference value :  1.39036e-05
 Reference value :  1.40000e-05
 Reference value :  1.40000e-05
 Reference value :  1.40000e-05
 Reference value :  1.40001e-05
 Reference value :  1.40001e-05
 Reference value :  1.40001e-05
 Reference value :  1.40001e-05
 Reference value :  1.40001e-05
 Reference value :  1.40002e-05
 Reference value :  1.40002e-05
 Reference value :  1.40004e-05
 Reference value :  1.40006e-05
 Reference value :  1.40009e-05
 Reference value :  1.40016e-05
 Reference value :  1.40022e-05
 Reference value :  1.40029e-05
 Reference value :  1.40036e-05
 Reference value :  1.40044e-05
 Reference value :  1.40052e-05
 Reference value :  1.40061e-05
 Reference value :  1.40072e-05
 Reference value :  1.40085e-05
 Reference value :  1.40099e-05
 Reference value :  1.40113e-05
 Reference value :  1.40129e-05
 Reference value :  1.40146e-05
 Reference value :  1.40162e-05
 Reference value :  1.40178e-05
 Reference value :  1.40196e-05
 Reference value :  1.40216e-05
 Reference value :  1.40253e-05
 Reference value :  1.40306e-05
 Reference value :  1.40410e-05
 Reference value :  1.40604e-05
 Reference value :  1.40971e-05
 Reference value :  1.41703e-05
 Reference value :  1.42501e-05
 Reference value :  1.42501e-05
 Reference value :  1.42501e-05
 Reference value :  1.42502e-05
 Reference value :  1.42502e-05
 Reference value :  1.42502e-05
 Reference value :  1.42502e-05
 Reference value :  1.42502e-05
 Reference value :  1.42502e-05
 Reference value :  1.42502e-05
 Reference value :  1.42502e-05
 Reference value :  1.42503e-05
 Reference value :  1.42504e-05
 Reference value :  1.42506e-05
 Reference value :  1.42509e-05
 Reference value :  1.42515e-05
 Reference value :  1.42522e-05
 Reference value :  1.42529e-05
 Reference value :  1.42537e-05
 Reference value :  1.42548e-05
 Reference value :  1.42557e-05
 Reference value :  1.42568e-05
 Reference value :  1.42578e-05
 Reference value :  1.42587e-05
 Reference value :  1.42599e-05
 Reference value :  1.42612e-05
 Reference value :  1.42637e-05
 Reference value :  1.42665e-05
 Reference value :  1.42710e-05
 Reference value :  1.42771e-05
 Reference value :  1.42892e-05
 Reference value :  1.43135e-05
 Reference value :  1.43620e-05
 Reference value :  1.44589e-05
 Reference value :  1.45000e-05
 Reference value :  1.45000e-05
 Reference value :  1.45000e-05
 Reference value :  1.45001e-05
 Reference value :  1.45001e-05
 Reference value :  1.45001e-05
 Reference value :  1.45001e-05
 Reference value :  1.45001e-05
 Reference value :  1.45002e-05
 Reference value :  1.45002e-05
 Reference value :  1.45004e-05
 Reference value :  1.45006e-05
 Reference value :  1.45009e-05
 Reference value :  1.45016e-05
 Reference value :  1.45022e-05
 Reference value :  1.45029e-05
 Reference value :  1.45036e-05
 Reference value :  1.45044e-05
 Reference value :  1.45052e-05
 Reference value :  1.45062e-05
 Reference value :  1.45071e-05
 Reference value :  1.45081e-05
 Reference value :  1.45090e-05
 Reference value :  1.45100e-05
 Reference value :  1.45110e-05
 Reference value :  1.45123e-05
 Reference value :  1.45142e-05
 Reference value :  1.45173e-05
 Reference value :  1.45203e-05
 Reference value :  1.45227e-05
 Reference value :  1.45247e-05
 Reference value :  1.45267e-05
 Reference value :  1.45287e-05
 Reference value :  1.45307e-05
 Reference value :  1.45332e-05
 Reference value :  1.45355e-05
 Reference value :  1.45390e-05
 Reference value :  1.45435e-05
 Reference value :  1.45500e-05
 Reference value :  1.45576e-05
 Reference value :  1.45657e-05
 Reference value :  1.45715e-05
 Reference value :  1.45774e-05
 Reference value :  1.45837e-05
 Reference value :  1.45906e-05
 Reference value :  1.45987e-05
 Reference value :  1.46064e-05
 Reference value :  1.46145e-05
 Reference value :  1.46305e-05
 Reference value :  1.46477e-05
 Reference value :  1.46764e-05
 Reference value :  1.47186e-05
 Reference value :  1.47501e-05
 Reference value :  1.47501e-05
 Reference value :  1.47501e-05
 Reference value :  1.47502e-05
 Reference value :  1.47502e-05
 Reference value :  1.47502e-05
 Reference value :  1.47502e-05
 Reference value :  1.47502e-05
 Reference value :  1.47502e-05
 Reference value :  1.47502e-05
 Reference value :  1.47502e-05
 Reference value :  1.47503e-05
 Reference value :  1.47504e-05
 Reference value :  1.47506e-05
 Reference value :  1.47509e-05
 Reference value :  1.47515e-05
 Reference value :  1.47522e-05
 Reference value :  1.47529e-05
 Reference value :  1.47537e-05
 Reference value :  1.47548e-05
 Reference value :  1.47557e-05
 Reference value :  1.47567e-05
 Reference value :  1.47577e-05
 Reference value :  1.47587e-05
 Reference value :  1.47604e-05
 Reference value :  1.47620e-05
 Reference value :  1.47649e-05
 Reference value :  1.47680e-05
 Reference value :  1.47730e-05
 Reference value :  1.47823e-05
 Reference value :  1.48009e-05
 Reference value :  1.48380e-05
 Reference value :  1.49122e-05
 Reference value :  1.50000e-05
 Reference value :  1.50000e-05
 Reference value :  1.50000e-05
 Reference value :  1.50001e-05
 Reference value :  1.50001e-05
 Reference value :  1.50001e-05
 Reference value :  1.50001e-05
 Reference value :  1.50001e-05
 Reference value :  1.50002e-05
 Reference value :  1.50002e-05
 Reference value :  1.50004e-05
 Reference value :  1.50006e-05
 Reference value :  1.50009e-05
 Reference value :  1.50016e-05
 Reference value :  1.50022e-05
 Reference value :  1.50029e-05
 Reference value :  1.50036e-05
 Reference value :  1.50043e-05
 Reference value :  1.50052e-05
 Reference value :  1.50061e-05
 Reference value :  1.50070e-05
 Reference value :  1.50084e-05
 Reference value :  1.50096e-05
 Reference value :  1.50112e-05
 Reference value :  1.50125e-05
 Reference value :  1.50139e-05
 Reference value :  1.50153e-05
 Reference value :  1.50169e-05
 Reference value :  1.50185e-05
 Reference value :  1.50203e-05
 Reference value :  1.50239e-05
 Reference value :  1.50311e-05
 Reference value :  1.50443e-05
 Reference value :  1.50705e-05
 Reference value :  1.51231e-05
 Reference value :  1.52281e-05
 Reference value :  1.52501e-05
 Reference value :  1.52501e-05
 Reference value :  1.52501e-05
 Reference value :  1.52502e-05
 Reference value :  1.52502e-05
 Reference value :  1.52502e-05
 Reference value :  1.52502e-05
 Reference value :  1.52502e-05
 Reference value :  1.52502e-05
 Reference value :  1.52502e-05
 Reference value :  1.52502e-05
 Reference value :  1.52503e-05
 Reference value :  1.52504e-05
 Reference value :  1.52506e-05
 Reference value :  1.52509e-05
 Reference value :  1.52515e-05
 Reference value :  1.52522e-05
 Reference value :  1.52529e-05
 Reference value :  1.52537e-05
 Reference value :  1.52548e-05
 Reference value :  1.52557e-05
 Reference value :  1.52568e-05
 Reference value :  1.52578e-05
 Reference value :  1.52588e-05
 Reference value :  1.52599e-05
 Reference value :  1.52612e-05
 Reference value :  1.52625e-05
 Reference value :  1.52643e-05
 Reference value :  1.52666e-05
 Reference value :  1.52693e-05
 Reference value :  1.52731e-05
 Reference value :  1.52783e-05
 Reference value :  1.52888e-05
 Reference value :  1.53085e-05
 Reference value :  1.53478e-05
 Reference value :  1.54265e-05
 Reference value :  1.55000e-05
 Reference value :  1.55010e-05
 Reference value :  1.55031e-05
 Reference value :  1.55042e-05
 Reference value :  1.55053e-05
 Reference value :  1.55063e-05
 Reference value :  1.55071e-05
 Reference value :  1.55080e-05
 Reference value :  1.55088e-05
 Reference value :  1.55098e-05
 Reference value :  1.55107e-05
 Reference value :  1.55121e-05
 Reference value :  1.55135e-05
 Reference value :  1.55159e-05
 Reference value :  1.55175e-05
 Reference value :  1.55193e-05
 Reference value :  1.55210e-05
 Reference value :  1.55229e-05
 Reference value :  1.55245e-05
 Reference value :  1.55258e-05
 Reference value :  1.55272e-05
 Reference value :  1.55285e-05
 Reference value :  1.55300e-05
 Reference value :  1.55317e-05
 Reference value :  1.55335e-05
 Reference value :  1.55365e-05
 Reference value :  1.55396e-05
 Reference value :  1.55446e-05
 Reference value :  1.55501e-05
 Reference value :  1.55564e-05
 Reference value :  1.55651e-05
 Reference value :  1.55714e-05
 Reference value :  1.55782e-05
 Reference value :  1.55864e-05
 Reference value :  1.55991e-05
 Reference value :  1.56110e-05
 Reference value :  1.56255e-05
 Reference value :  1.56538e-05
 Reference value :  1.57020e-05
 Reference value :  1.57501e-05
 Reference value :  1.57501e-05
 Reference value :  1.57501e-05
 Reference value :  1.57502e-05
 Reference value :  1.57502e-05
 Reference value :  1.57502e-05
 Reference value :  1.57502e-05
 Reference value :  1.57502e-05
 Reference value :  1.57502e-05
 Reference value :  1.57502e-05
 Reference value :  1.57502e-05
 Reference value :  1.57503e-05
 Reference value :  1.57504e-05
 Reference value :  1.57506e-05
 Reference value :  1.57509e-05
[...]
 Reference value :  2.68000e-04
 Reference value :  2.68000e-04
 Reference value :  2.68000e-04
 Reference value :  2.68000e-04
 Reference value :  2.68000e-04
 Reference value :  2.68000e-04
 Reference value :  2.68000e-04
 Reference value :  2.68000e-04
 Reference value :  2.68001e-04
 Reference value :  2.68001e-04
 Reference value :  2.68002e-04
 Reference value :  2.68002e-04
 Reference value :  2.68003e-04
 Reference value :  2.68004e-04
 Reference value :  2.68004e-04
 Reference value :  2.68005e-04
 Reference value :  2.68006e-04
 Reference value :  2.68007e-04
 Reference value :  2.68008e-04
 Reference value :  2.68010e-04
 Reference value :  2.68011e-04
 Reference value :  2.68012e-04
 Reference value :  2.68014e-04
 Reference value :  2.68015e-04
 Reference value :  2.68017e-04
 Reference value :  2.68019e-04
 Reference value :  2.68021e-04
 Reference value :  2.68024e-04
 Reference value :  2.68032e-04
 Reference value :  2.68045e-04
 Reference value :  2.68071e-04
 Reference value :  2.68123e-04
 Reference value :  2.68227e-04
 Reference value :  2.68250e-04
 Reference value :  2.68250e-04
 Reference value :  2.68250e-04
 Reference value :  2.68250e-04
 Reference value :  2.68250e-04
 Reference value :  2.68250e-04
 Reference value :  2.68250e-04
 Reference value :  2.68250e-04
 Reference value :  2.68250e-04
 Reference value :  2.68250e-04
 Reference value :  2.68250e-04
 Reference value :  2.68250e-04
 Reference value :  2.68250e-04
 Reference value :  2.68251e-04
 Reference value :  2.68251e-04
 Reference value :  2.68252e-04
 Reference value :  2.68252e-04
 Reference value :  2.68253e-04
 Reference value :  2.68254e-04
 Reference value :  2.68255e-04
 Reference value :  2.68256e-04
 Reference value :  2.68257e-04
 Reference value :  2.68258e-04
 Reference value :  2.68259e-04
 Reference value :  2.68260e-04
 Reference value :  2.68261e-04
 Reference value :  2.68263e-04
 Reference value :  2.68264e-04
 Reference value :  2.68267e-04
 Reference value :  2.68269e-04
 Reference value :  2.68273e-04
 Reference value :  2.68279e-04
 Reference value :  2.68289e-04
 Reference value :  2.68310e-04
 Reference value :  2.68353e-04
 Reference value :  2.68438e-04
 Reference value :  2.68500e-04
 Reference value :  2.68500e-04
 Reference value :  2.68500e-04
 Reference value :  2.68500e-04
 Reference value :  2.68500e-04
 Reference value :  2.68500e-04
 Reference value :  2.68500e-04
 Reference value :  2.68500e-04
 Reference value :  2.68500e-04
 Reference value :  2.68500e-04
 Reference value :  2.68500e-04
 Reference value :  2.68501e-04
 Reference value :  2.68501e-04
 Reference value :  2.68502e-04
 Reference value :  2.68502e-04
 Reference value :  2.68503e-04
 Reference value :  2.68504e-04
 Reference value :  2.68504e-04
 Reference value :  2.68505e-04
 Reference value :  2.68506e-04
 Reference value :  2.68507e-04
 Reference value :  2.68508e-04
 Reference value :  2.68509e-04
 Reference value :  2.68510e-04
 Reference value :  2.68511e-04
 Reference value :  2.68512e-04
 Reference value :  2.68514e-04
 Reference value :  2.68515e-04
 Reference value :  2.68517e-04
 Reference value :  2.68519e-04
 Reference value :  2.68521e-04
 Reference value :  2.68522e-04
 Reference value :  2.68524e-04
 Reference value :  2.68525e-04
 Reference value :  2.68527e-04
 Reference value :  2.68528e-04
 Reference value :  2.68530e-04
 Reference value :  2.68532e-04
 Reference value :  2.68534e-04
 Reference value :  2.68537e-04
 Reference value :  2.68541e-04
 Reference value :  2.68548e-04
 Reference value :  2.68557e-04
 Reference value :  2.68570e-04
 Reference value :  2.68581e-04
 Reference value :  2.68589e-04
 Reference value :  2.68597e-04
 Reference value :  2.68606e-04
 Reference value :  2.68616e-04
 Reference value :  2.68627e-04
 Reference value :  2.68638e-04
 Reference value :  2.68650e-04
 Reference value :  2.68660e-04
 Reference value :  2.68674e-04
 Reference value :  2.68689e-04
 Reference value :  2.68703e-04
 Reference value :  2.68717e-04
 Reference value :  2.68735e-04
 Reference value :  2.68750e-04
 Reference value :  2.68750e-04
 Reference value :  2.68750e-04
 Reference value :  2.68750e-04
 Reference value :  2.68750e-04
 Reference value :  2.68750e-04
 Reference value :  2.68750e-04
 Reference value :  2.68750e-04
 Reference value :  2.68750e-04
 Reference value :  2.68750e-04
 Reference value :  2.68750e-04
 Reference value :  2.68750e-04
 Reference value :  2.68750e-04
 Reference value :  2.68751e-04
 Reference value :  2.68751e-04
 Reference value :  2.68752e-04
 Reference value :  2.68752e-04
 Reference value :  2.68753e-04
 Reference value :  2.68754e-04
 Reference value :  2.68755e-04
 Reference value :  2.68756e-04
 Reference value :  2.68757e-04
 Reference value :  2.68758e-04
 Reference value :  2.68759e-04
 Reference value :  2.68761e-04
 Reference value :  2.68762e-04
 Reference value :  2.68765e-04
 Reference value :  2.68769e-04
 Reference value :  2.68774e-04
 Reference value :  2.68784e-04
 Reference value :  2.68803e-04
 Reference value :  2.68837e-04
 Reference value :  2.68896e-04
 Reference value :  2.68959e-04
 Reference value :  2.69000e-04
 Reference value :  2.69000e-04
 Reference value :  2.69000e-04
 Reference value :  2.69000e-04
 Reference value :  2.69000e-04
 Reference value :  2.69000e-04
 Reference value :  2.69000e-04
 Reference value :  2.69000e-04
 Reference value :  2.69000e-04
 Reference value :  2.69000e-04
 Reference value :  2.69000e-04
 Reference value :  2.69001e-04
 Reference value :  2.69001e-04
 Reference value :  2.69002e-04
 Reference value :  2.69002e-04
 Reference value :  2.69003e-04
 Reference value :  2.69004e-04
 Reference value :  2.69004e-04
 Reference value :  2.69005e-04
 Reference value :  2.69006e-04
 Reference value :  2.69007e-04
 Reference value :  2.69008e-04
 Reference value :  2.69010e-04
 Reference value :  2.69011e-04
 Reference value :  2.69013e-04
 Reference value :  2.69015e-04
 Reference value :  2.69016e-04
 Reference value :  2.69018e-04
 Reference value :  2.69020e-04
 Reference value :  2.69022e-04
 Reference value :  2.69025e-04
 Reference value :  2.69031e-04
 Reference value :  2.69041e-04
 Reference value :  2.69061e-04
 Reference value :  2.69097e-04
 Reference value :  2.69169e-04
 Reference value :  2.69250e-04
 Reference value :  2.69250e-04
 Reference value :  2.69250e-04
 Reference value :  2.69250e-04
 Reference value :  2.69250e-04
 Reference value :  2.69250e-04
 Reference value :  2.69250e-04
 Reference value :  2.69250e-04
 Reference value :  2.69250e-04
 Reference value :  2.69250e-04
 Reference value :  2.69250e-04
 Reference value :  2.69250e-04
 Reference value :  2.69250e-04
 Reference value :  2.69251e-04
 Reference value :  2.69251e-04
 Reference value :  2.69252e-04
 Reference value :  2.69252e-04
 Reference value :  2.69253e-04
 Reference value :  2.69254e-04
 Reference value :  2.69255e-04
 Reference value :  2.69256e-04
 Reference value :  2.69257e-04
 Reference value :  2.69258e-04
 Reference value :  2.69259e-04
 Reference value :  2.69260e-04
 Reference value :  2.69261e-04
 Reference value :  2.69263e-04
 Reference value :  2.69264e-04
 Reference value :  2.69267e-04
 Reference value :  2.69270e-04
 Reference value :  2.69273e-04
 Reference value :  2.69279e-04
 Reference value :  2.69289e-04
 Reference value :  2.69311e-04
 Reference value :  2.69354e-04
 Reference value :  2.69439e-04
 Reference value :  2.69500e-04
 Reference value :  2.69500e-04
 Reference value :  2.69500e-04
 Reference value :  2.69500e-04
 Reference value :  2.69500e-04
 Reference value :  2.69500e-04
 Reference value :  2.69500e-04
 Reference value :  2.69500e-04
 Reference value :  2.69500e-04
 Reference value :  2.69500e-04
 Reference value :  2.69500e-04
 Reference value :  2.69501e-04
 Reference value :  2.69501e-04
 Reference value :  2.69502e-04
 Reference value :  2.69502e-04
 Reference value :  2.69503e-04
 Reference value :  2.69504e-04
 Reference value :  2.69504e-04
 Reference value :  2.69505e-04
 Reference value :  2.69506e-04
 Reference value :  2.69507e-04
 Reference value :  2.69508e-04
 Reference value :  2.69509e-04
 Reference value :  2.69510e-04
 Reference value :  2.69511e-04
 Reference value :  2.69512e-04
 Reference value :  2.69514e-04
 Reference value :  2.69516e-04
 Reference value :  2.69518e-04
 Reference value :  2.69520e-04
 Reference value :  2.69521e-04
 Reference value :  2.69523e-04
 Reference value :  2.69525e-04
 Reference value :  2.69526e-04
 Reference value :  2.69527e-04
 Reference value :  2.69529e-04
 Reference value :  2.69530e-04
 Reference value :  2.69532e-04
 Reference value :  2.69534e-04
 Reference value :  2.69537e-04
 Reference value :  2.69540e-04
 Reference value :  2.69547e-04
 Reference value :  2.69555e-04
 Reference value :  2.69564e-04
 Reference value :  2.69573e-04
 Reference value :  2.69584e-04
 Reference value :  2.69601e-04
 Reference value :  2.69622e-04
 Reference value :  2.69636e-04
 Reference value :  2.69652e-04
 Reference value :  2.69672e-04
 Reference value :  2.69697e-04
 Reference value :  2.69741e-04
 Reference value :  2.69750e-04
 Reference value :  2.69750e-04
 Reference value :  2.69750e-04
 Reference value :  2.69750e-04
 Reference value :  2.69750e-04
 Reference value :  2.69750e-04
 Reference value :  2.69750e-04
 Reference value :  2.69750e-04
 Reference value :  2.69750e-04
 Reference value :  2.69750e-04
 Reference value :  2.69750e-04
 Reference value :  2.69750e-04
 Reference value :  2.69750e-04
 Reference value :  2.69751e-04
 Reference value :  2.69751e-04
 Reference value :  2.69752e-04
 Reference value :  2.69752e-04
 Reference value :  2.69753e-04
 Reference value :  2.69754e-04
 Reference value :  2.69755e-04
 Reference value :  2.69756e-04
 Reference value :  2.69757e-04
 Reference value :  2.69758e-04
 Reference value :  2.69759e-04
 Reference value :  2.69761e-04
 Reference value :  2.69762e-04
 Reference value :  2.69765e-04
 Reference value :  2.69768e-04
 Reference value :  2.69773e-04
 Reference value :  2.69780e-04
 Reference value :  2.69789e-04
 Reference value :  2.69808e-04
 Reference value :  2.69847e-04
 Reference value :  2.69896e-04
 Reference value :  2.69937e-04
 Reference value :  2.69978e-04
 Reference value :  2.70000e-04
 Reference value :  2.70000e-04
 Reference value :  2.70000e-04
 Reference value :  2.70000e-04
 Reference value :  2.70000e-04
 Reference value :  2.70000e-04
 Reference value :  2.70000e-04
 Reference value :  2.70000e-04
 Reference value :  2.70000e-04
 Reference value :  2.70000e-04
 Reference value :  2.70000e-04
 Reference value :  2.70001e-04
 Reference value :  2.70001e-04
 Reference value :  2.70002e-04
 Reference value :  2.70002e-04
 Reference value :  2.70003e-04
 Reference value :  2.70004e-04
 Reference value :  2.70004e-04
 Reference value :  2.70005e-04
 Reference value :  2.70006e-04
 Reference value :  2.70007e-04
 Reference value :  2.70008e-04
 Reference value :  2.70010e-04
 Reference value :  2.70011e-04
 Reference value :  2.70013e-04
 Reference value :  2.70014e-04
 Reference value :  2.70015e-04
 Reference value :  2.70017e-04
 Reference value :  2.70019e-04
 Reference value :  2.70020e-04
 Reference value :  2.70024e-04
 Reference value :  2.70031e-04
 Reference value :  2.70044e-04
 Reference value :  2.70070e-04
 Reference value :  2.70123e-04
 Reference value :  2.70228e-04
 Reference value :  2.70250e-04
 Reference value :  2.70250e-04
 Reference value :  2.70250e-04
 Reference value :  2.70250e-04
 Reference value :  2.70250e-04
 Reference value :  2.70250e-04
 Reference value :  2.70250e-04
 Reference value :  2.70250e-04
 Reference value :  2.70250e-04
 Reference value :  2.70250e-04
 Reference value :  2.70250e-04
 Reference value :  2.70250e-04
 Reference value :  2.70250e-04
 Reference value :  2.70251e-04
 Reference value :  2.70251e-04
 Reference value :  2.70252e-04
 Reference value :  2.70252e-04
 Reference value :  2.70253e-04
 Reference value :  2.70254e-04
 Reference value :  2.70255e-04
 Reference value :  2.70256e-04
 Reference value :  2.70257e-04
 Reference value :  2.70258e-04
 Reference value :  2.70259e-04
 Reference value :  2.70260e-04
 Reference value :  2.70261e-04
 Reference value :  2.70263e-04
 Reference value :  2.70264e-04
 Reference value :  2.70267e-04
 Reference value :  2.70269e-04
 Reference value :  2.70273e-04
 Reference value :  2.70279e-04
 Reference value :  2.70289e-04
 Reference value :  2.70311e-04
 Reference value :  2.70353e-04
 Reference value :  2.70439e-04
 Reference value :  2.70500e-04
 Reference value :  2.70500e-04
 Reference value :  2.70500e-04
 Reference value :  2.70500e-04
 Reference value :  2.70500e-04
 Reference value :  2.70500e-04
 Reference value :  2.70500e-04
 Reference value :  2.70500e-04
 Reference value :  2.70500e-04
 Reference value :  2.70500e-04
 Reference value :  2.70500e-04
 Reference value :  2.70501e-04
 Reference value :  2.70501e-04
 Reference value :  2.70502e-04
 Reference value :  2.70502e-04
 Reference value :  2.70503e-04
 Reference value :  2.70504e-04
 Reference value :  2.70504e-04
 Reference value :  2.70505e-04
 Reference value :  2.70506e-04
 Reference value :  2.70507e-04
 Reference value :  2.70508e-04
 Reference value :  2.70509e-04
 Reference value :  2.70510e-04
 Reference value :  2.70511e-04
 Reference value :  2.70512e-04
 Reference value :  2.70514e-04
 Reference value :  2.70516e-04
 Reference value :  2.70518e-04
 Reference value :  2.70519e-04
 Reference value :  2.70521e-04
 Reference value :  2.70523e-04
 Reference value :  2.70524e-04
 Reference value :  2.70526e-04
 Reference value :  2.70528e-04
 Reference value :  2.70529e-04
 Reference value :  2.70531e-04
 Reference value :  2.70532e-04
 Reference value :  2.70535e-04
 Reference value :  2.70537e-04
 Reference value :  2.70542e-04
 Reference value :  2.70547e-04
 Reference value :  2.70553e-04
 Reference value :  2.70561e-04
 Reference value :  2.70567e-04
 Reference value :  2.70573e-04
 Reference value :  2.70581e-04
 Reference value :  2.70590e-04
 Reference value :  2.70599e-04
 Reference value :  2.70613e-04
 Reference value :  2.70641e-04
 Reference value :  2.70677e-04
 Reference value :  2.70747e-04
 Reference value :  2.70750e-04
 Reference value :  2.70750e-04
 Reference value :  2.70750e-04
 Reference value :  2.70750e-04
 Reference value :  2.70750e-04
 Reference value :  2.70750e-04
 Reference value :  2.70750e-04
 Reference value :  2.70750e-04
 Reference value :  2.70750e-04
 Reference value :  2.70750e-04
 Reference value :  2.70750e-04
 Reference value :  2.70750e-04
 Reference value :  2.70750e-04
 Reference value :  2.70751e-04
 Reference value :  2.70751e-04
 Reference value :  2.70752e-04
 Reference value :  2.70752e-04
 Reference value :  2.70753e-04
 Reference value :  2.70754e-04
 Reference value :  2.70755e-04
 Reference value :  2.70756e-04
 Reference value :  2.70757e-04
 Reference value :  2.70758e-04
 Reference value :  2.70759e-04
 Reference value :  2.70761e-04
 Reference value :  2.70762e-04
 Reference value :  2.70765e-04
 Reference value :  2.70769e-04
 Reference value :  2.70774e-04
 Reference value :  2.70784e-04
 Reference value :  2.70803e-04
 Reference value :  2.70837e-04
 Reference value :  2.70904e-04
 Reference value :  2.71000e-04
 Reference value :  2.71000e-04
 Reference value :  2.71000e-04
 Reference value :  2.71000e-04
 Reference value :  2.71000e-04
 Reference value :  2.71000e-04
 Reference value :  2.71000e-04
 Reference value :  2.71000e-04
 Reference value :  2.71000e-04
 Reference value :  2.71000e-04
 Reference value :  2.71000e-04
 Reference value :  2.71001e-04
 Reference value :  2.71001e-04
 Reference value :  2.71002e-04
 Reference value :  2.71002e-04
 Reference value :  2.71003e-04
 Reference value :  2.71004e-04
 Reference value :  2.71004e-04
 Reference value :  2.71005e-04
 Reference value :  2.71006e-04
 Reference value :  2.71007e-04
 Reference value :  2.71008e-04
 Reference value :  2.71010e-04
 Reference value :  2.71012e-04
 Reference value :  2.71013e-04
 Reference value :  2.71015e-04
 Reference value :  2.71016e-04
 Reference value :  2.71018e-04
 Reference value :  2.71019e-04
 Reference value :  2.71021e-04
 Reference value :  2.71025e-04
 Reference value :  2.71031e-04
 Reference value :  2.71044e-04
 Reference value :  2.71070e-04
 Reference value :  2.71121e-04
 Reference value :  2.71223e-04
 Reference value :  2.71250e-04
 Reference value :  2.71250e-04
 Reference value :  2.71250e-04
 Reference value :  2.71250e-04
 Reference value :  2.71250e-04
 Reference value :  2.71250e-04
 Reference value :  2.71250e-04
 Reference value :  2.71250e-04
 Reference value :  2.71250e-04
 Reference value :  2.71250e-04
 Reference value :  2.71250e-04
 Reference value :  2.71250e-04
 Reference value :  2.71250e-04
 Reference value :  2.71251e-04
 Reference value :  2.71251e-04
 Reference value :  2.71252e-04
 Reference value :  2.71252e-04
 Reference value :  2.71253e-04
 Reference value :  2.71254e-04
 Reference value :  2.71255e-04
 Reference value :  2.71256e-04
 Reference value :  2.71257e-04
 Reference value :  2.71258e-04
 Reference value :  2.71259e-04
 Reference value :  2.71260e-04
 Reference value :  2.71261e-04
 Reference value :  2.71264e-04
 Reference value :  2.71266e-04
 Reference value :  2.71271e-04
 Reference value :  2.71276e-04
 Reference value :  2.71288e-04
 Reference value :  2.71311e-04
 Reference value :  2.71357e-04
 Reference value :  2.71450e-04
 Reference value :  2.71500e-04
 Reference value :  2.71500e-04
 Reference value :  2.71500e-04
 Reference value :  2.71500e-04
 Reference value :  2.71500e-04
 Reference value :  2.71500e-04
 Reference value :  2.71500e-04
 Reference value :  2.71500e-04
 Reference value :  2.71500e-04
 Reference value :  2.71500e-04
 Reference value :  2.71500e-04
 Reference value :  2.71501e-04
 Reference value :  2.71501e-04
 Reference value :  2.71502e-04
 Reference value :  2.71502e-04
 Reference value :  2.71503e-04
 Reference value :  2.71504e-04
 Reference value :  2.71504e-04
 Reference value :  2.71505e-04
 Reference value :  2.71506e-04
 Reference value :  2.71507e-04
 Reference value :  2.71508e-04
 Reference value :  2.71509e-04
 Reference value :  2.71510e-04
 Reference value :  2.71511e-04
 Reference value :  2.71512e-04
 Reference value :  2.71514e-04
 Reference value :  2.71517e-04
 Reference value :  2.71520e-04
 Reference value :  2.71523e-04
 Reference value :  2.71525e-04
 Reference value :  2.71528e-04
 Reference value :  2.71531e-04
 Reference value :  2.71536e-04
 Reference value :  2.71542e-04
 Reference value :  2.71552e-04
 Reference value :  2.71568e-04
 Reference value :  2.71595e-04
 Reference value :  2.71647e-04
 Reference value :  2.71749e-04
 Reference value :  2.71750e-04
 Reference value :  2.71750e-04
 Reference value :  2.71750e-04
 Reference value :  2.71750e-04
 Reference value :  2.71750e-04
 Reference value :  2.71750e-04
 Reference value :  2.71750e-04
 Reference value :  2.71750e-04
 Reference value :  2.71750e-04
 Reference value :  2.71750e-04
 Reference value :  2.71750e-04
 Reference value :  2.71750e-04
 Reference value :  2.71750e-04
 Reference value :  2.71751e-04
 Reference value :  2.71751e-04
 Reference value :  2.71752e-04
 Reference value :  2.71752e-04
 Reference value :  2.71753e-04
 Reference value :  2.71754e-04
 Reference value :  2.71755e-04
 Reference value :  2.71756e-04
 Reference value :  2.71758e-04
 Reference value :  2.71759e-04
 Reference value :  2.71761e-04
 Reference value :  2.71763e-04
 Reference value :  2.71766e-04
 Reference value :  2.71770e-04
 Reference value :  2.71776e-04
 Reference value :  2.71788e-04
 Reference value :  2.71811e-04
 Reference value :  2.71857e-04
 Reference value :  2.71950e-04
 Reference value :  2.72000e-04
No. of Data Rows : 42012
ngspice-44 done
