
Note: Compatibility modes selected: hs a


Circuit: ** sch_path: /home/audrey/cace/sar-adc-using-sky130-pdk/runs/run_2025-08-29_20-00-41/parameters/power/run_4/power_consumption.sch

option SCALE: Scale is set to 1e-06 for instance and model parameters
option SCALE: Scale is set to 1e-06 for instance and model parameters
option SCALE: Scale is set to 1e-06 for instance and model parameters
option SCALE: Scale is set to 1e-06 for instance and model parameters
Doing analysis at TEMP = 27.000000 and TNOM = 27.000000

Using KLU as Direct Linear Solver
Operating point simulation skipped by 'uic',
  now using transient initial conditions.
 Reference value :  5.00000e-12
 Reference value :  5.12950e-12
 Reference value :  5.38851e-12
 Reference value :  5.90652e-12
 Reference value :  6.94254e-12
 Reference value :  8.81800e-12
 Reference value :  1.18100e-11
 Reference value :  1.72321e-11
 Reference value :  2.75493e-11
 Reference value :  4.06984e-11
 Reference value :  6.42316e-11
 Reference value :  9.25183e-11
 Reference value :  1.43199e-10
 Reference value :  2.02245e-10
 Reference value :  3.20338e-10
 Reference value :  4.54078e-10
 Reference value :  5.00000e-10
 Reference value :  5.05414e-10
 Reference value :  5.16241e-10
 Reference value :  5.37896e-10
 Reference value :  5.81206e-10
 Reference value :  6.67825e-10
 Reference value :  8.41064e-10
 Reference value :  1.18754e-09
 Reference value :  1.88050e-09
 Reference value :  2.92054e-09
 Reference value :  4.56483e-09
 Reference value :  7.85341e-09
 Reference value :  1.09850e-08
 Reference value :  1.72481e-08
 Reference value :  2.71513e-08
 Reference value :  4.00839e-08
 Reference value :  5.83854e-08
 Reference value :  8.93117e-08
 Reference value :  1.51164e-07
 Reference value :  2.38885e-07
 Reference value :  3.39873e-07
 Reference value :  5.00000e-07
 Reference value :  5.20198e-07
 Reference value :  5.60593e-07
 Reference value :  6.41383e-07
 Reference value :  8.02964e-07
 Reference value :  1.00050e-06
 Reference value :  1.00055e-06
 Reference value :  1.00065e-06
 Reference value :  1.00085e-06
 Reference value :  1.00100e-06
 Reference value :  1.00104e-06
 Reference value :  1.00111e-06
 Reference value :  1.00126e-06
 Reference value :  1.00156e-06
 Reference value :  1.00216e-06
 Reference value :  1.00286e-06
 Reference value :  1.00401e-06
 Reference value :  1.00572e-06
 Reference value :  1.00894e-06
 Reference value :  1.01450e-06
 Reference value :  1.02123e-06
 Reference value :  1.02846e-06
 Reference value :  1.03747e-06
 Reference value :  1.04763e-06
 Reference value :  1.06550e-06
 Reference value :  1.08372e-06
 Reference value :  1.10190e-06
 Reference value :  1.13167e-06
 Reference value :  1.16300e-06
 Reference value :  1.16770e-06
 Reference value :  1.17711e-06
 Reference value :  1.18793e-06
 Reference value :  1.19854e-06
 Reference value :  1.20696e-06
 Reference value :  1.21604e-06
 Reference value :  1.22234e-06
 Reference value :  1.22821e-06
 Reference value :  1.23326e-06
 Reference value :  1.23866e-06
 Reference value :  1.24357e-06
 Reference value :  1.25012e-06
 Reference value :  1.25626e-06
 Reference value :  1.26496e-06
 Reference value :  1.27731e-06
 Reference value :  1.28682e-06
 Reference value :  1.29452e-06
 Reference value :  1.30177e-06
 Reference value :  1.30721e-06
 Reference value :  1.31255e-06
 Reference value :  1.31747e-06
 Reference value :  1.32213e-06
 Reference value :  1.32698e-06
 Reference value :  1.33279e-06
 Reference value :  1.33883e-06
 Reference value :  1.34797e-06
 Reference value :  1.35921e-06
 Reference value :  1.37564e-06
 Reference value :  1.39251e-06
 Reference value :  1.41049e-06
 Reference value :  1.43357e-06
 Reference value :  1.45809e-06
 Reference value :  1.50654e-06
 Reference value :  1.56827e-06
 Reference value :  1.67557e-06
 Reference value :  1.85321e-06
 Reference value :  2.00000e-06
 Reference value :  2.00005e-06
 Reference value :  2.00015e-06
 Reference value :  2.00035e-06
 Reference value :  2.00050e-06
 Reference value :  2.00051e-06
 Reference value :  2.00053e-06
 Reference value :  2.00056e-06
 Reference value :  2.00063e-06
 Reference value :  2.00076e-06
 Reference value :  2.00103e-06
 Reference value :  2.00158e-06
 Reference value :  2.00266e-06
 Reference value :  2.00397e-06
 Reference value :  2.00604e-06
 Reference value :  2.00847e-06
 Reference value :  2.01334e-06
 Reference value :  2.01872e-06
 Reference value :  2.02510e-06
 Reference value :  2.03352e-06
 Reference value :  2.04923e-06
 Reference value :  2.07317e-06
 Reference value :  2.12061e-06
 Reference value :  2.16778e-06
 Reference value :  2.21623e-06
 Reference value :  2.27566e-06
 Reference value :  2.34039e-06
 Reference value :  2.40156e-06
 Reference value :  2.48869e-06
 Reference value :  2.55648e-06
 Reference value :  2.62808e-06
 Reference value :  2.71425e-06
 Reference value :  2.78179e-06
 Reference value :  2.85425e-06
 Reference value :  2.94439e-06
 Reference value :  3.00050e-06
 Reference value :  3.00055e-06
 Reference value :  3.00065e-06
 Reference value :  3.00085e-06
 Reference value :  3.00100e-06
 Reference value :  3.00104e-06
 Reference value :  3.00111e-06
 Reference value :  3.00126e-06
 Reference value :  3.00153e-06
 Reference value :  3.00182e-06
 Reference value :  3.00218e-06
 Reference value :  3.00275e-06
 Reference value :  3.00389e-06
 Reference value :  3.00616e-06
 Reference value :  3.01071e-06
 Reference value :  3.01980e-06
 Reference value :  3.03652e-06
 Reference value :  3.05712e-06
 Reference value :  3.08086e-06
 Reference value :  3.11401e-06
 Reference value :  3.14879e-06
 Reference value :  3.21217e-06
 Reference value :  3.33249e-06
 Reference value :  3.48518e-06
 Reference value :  3.69559e-06
 Reference value :  3.70034e-06
 Reference value :  3.70985e-06
 Reference value :  3.72888e-06
 Reference value :  3.76693e-06
 Reference value :  3.84304e-06
 Reference value :  3.99524e-06
 Reference value :  4.00000e-06
 Reference value :  4.00005e-06
 Reference value :  4.00015e-06
 Reference value :  4.00035e-06
 Reference value :  4.00050e-06
 Reference value :  4.00051e-06
 Reference value :  4.00053e-06
 Reference value :  4.00057e-06
 Reference value :  4.00065e-06
 Reference value :  4.00082e-06
 Reference value :  4.00114e-06
 Reference value :  4.00180e-06
 Reference value :  4.00311e-06
 Reference value :  4.00432e-06
 Reference value :  4.00676e-06
 Reference value :  4.00937e-06
 Reference value :  4.01459e-06
 Reference value :  4.02076e-06
 Reference value :  4.02734e-06
 Reference value :  4.03714e-06
 Reference value :  4.05358e-06
 Reference value :  4.07919e-06
 Reference value :  4.12931e-06
 Reference value :  4.21624e-06
 Reference value :  4.34641e-06
 Reference value :  4.46706e-06
 Reference value :  4.57713e-06
 Reference value :  4.66673e-06
 Reference value :  4.78189e-06
 Reference value :  4.90282e-06
 Reference value :  5.00050e-06
 Reference value :  5.00055e-06
 Reference value :  5.00065e-06
 Reference value :  5.00085e-06
 Reference value :  5.00100e-06
 Reference value :  5.00104e-06
 Reference value :  5.00111e-06
 Reference value :  5.00125e-06
 Reference value :  5.00153e-06
 Reference value :  5.00182e-06
 Reference value :  5.00218e-06
 Reference value :  5.00274e-06
 Reference value :  5.00388e-06
 Reference value :  5.00614e-06
 Reference value :  5.01067e-06
 Reference value :  5.01973e-06
 Reference value :  5.03655e-06
 Reference value :  5.05222e-06
 Reference value :  5.07843e-06
 Reference value :  5.10591e-06
 Reference value :  5.16088e-06
 Reference value :  5.22226e-06
 Reference value :  5.33107e-06
 Reference value :  5.33313e-06
 Reference value :  5.33727e-06
 Reference value :  5.34553e-06
 Reference value :  5.36207e-06
 Reference value :  5.39513e-06
 Reference value :  5.43000e-06
 Reference value :  5.46560e-06
 Reference value :  5.49093e-06
 Reference value :  5.51436e-06
 Reference value :  5.53905e-06
 Reference value :  5.56548e-06
 Reference value :  5.60461e-06
 Reference value :  5.64985e-06
 Reference value :  5.71630e-06
 Reference value :  5.80672e-06
 Reference value :  5.89882e-06
 Reference value :  5.96350e-06
 Reference value :  6.00000e-06
 Reference value :  6.00005e-06
 Reference value :  6.00015e-06
 Reference value :  6.00035e-06
 Reference value :  6.00050e-06
 Reference value :  6.00051e-06
 Reference value :  6.00054e-06
 Reference value :  6.00059e-06
 Reference value :  6.00069e-06
 Reference value :  6.00089e-06
 Reference value :  6.00129e-06
 Reference value :  6.00210e-06
 Reference value :  6.00371e-06
 Reference value :  6.00656e-06
 Reference value :  6.00919e-06
 Reference value :  6.01447e-06
 Reference value :  6.02037e-06
 Reference value :  6.03218e-06
 Reference value :  6.04755e-06
 Reference value :  6.06439e-06
 Reference value :  6.08777e-06
 Reference value :  6.13454e-06
 Reference value :  6.20370e-06
 Reference value :  6.33492e-06
 Reference value :  6.52888e-06
 Reference value :  6.81763e-06
 Reference value :  7.00050e-06
 Reference value :  7.00055e-06
 Reference value :  7.00065e-06
 Reference value :  7.00085e-06
 Reference value :  7.00100e-06
 Reference value :  7.00103e-06
 Reference value :  7.00110e-06
 Reference value :  7.00124e-06
 Reference value :  7.00151e-06
 Reference value :  7.00180e-06
 Reference value :  7.00222e-06
 Reference value :  7.00283e-06
 Reference value :  7.00406e-06
 Reference value :  7.00651e-06
 Reference value :  7.01142e-06
 Reference value :  7.02123e-06
 Reference value :  7.04084e-06
 Reference value :  7.06693e-06
 Reference value :  7.10408e-06
 Reference value :  7.15614e-06
 Reference value :  7.23661e-06
 Reference value :  7.32930e-06
 Reference value :  7.45098e-06
 Reference value :  7.60051e-06
 Reference value :  7.74525e-06
 Reference value :  7.84784e-06
 Reference value :  7.94405e-06
 Reference value :  8.00000e-06
 Reference value :  8.00005e-06
 Reference value :  8.00015e-06
 Reference value :  8.00035e-06
 Reference value :  8.00050e-06
 Reference value :  8.00051e-06
 Reference value :  8.00053e-06
 Reference value :  8.00056e-06
 Reference value :  8.00064e-06
 Reference value :  8.00079e-06
 Reference value :  8.00108e-06
 Reference value :  8.00167e-06
 Reference value :  8.00285e-06
 Reference value :  8.00522e-06
 Reference value :  8.00866e-06
 Reference value :  8.01232e-06
 Reference value :  8.01965e-06
 Reference value :  8.02751e-06
 Reference value :  8.04322e-06
 Reference value :  8.07043e-06
 Reference value :  8.10255e-06
 Reference value :  8.14009e-06
 Reference value :  8.19601e-06
 Reference value :  8.26911e-06
 Reference value :  8.39867e-06
 Reference value :  8.52111e-06
 Reference value :  8.76599e-06
 Reference value :  9.00050e-06
 Reference value :  9.00055e-06
 Reference value :  9.00065e-06
 Reference value :  9.00085e-06
 Reference value :  9.00100e-06
 Reference value :  9.00103e-06
 Reference value :  9.00110e-06
 Reference value :  9.00124e-06
 Reference value :  9.00151e-06
 Reference value :  9.00180e-06
 Reference value :  9.00221e-06
 Reference value :  9.00282e-06
 Reference value :  9.00403e-06
 Reference value :  9.00647e-06
 Reference value :  9.01133e-06
 Reference value :  9.02106e-06
 Reference value :  9.04052e-06
 Reference value :  9.06146e-06
 Reference value :  9.09396e-06
 Reference value :  9.13296e-06
 Reference value :  9.20104e-06
 Reference value :  9.27423e-06
 Reference value :  9.37096e-06
 Reference value :  9.52858e-06
 Reference value :  9.68527e-06
 Reference value :  9.93159e-06
 Reference value :  1.00000e-05
 Reference value :  1.00000e-05
 Reference value :  1.00001e-05
 Reference value :  1.00003e-05
 Reference value :  1.00005e-05
 Reference value :  1.00005e-05
 Reference value :  1.00005e-05
 Reference value :  1.00006e-05
 Reference value :  1.00007e-05
 Reference value :  1.00009e-05
 Reference value :  1.00012e-05
 Reference value :  1.00020e-05
 Reference value :  1.00035e-05
 Reference value :  1.00059e-05
 Reference value :  1.00084e-05
 Reference value :  1.00135e-05
 Reference value :  1.00185e-05
 Reference value :  1.00286e-05
 Reference value :  1.00484e-05
 Reference value :  1.00675e-05
 Reference value :  1.00911e-05
 Reference value :  1.01287e-05
 Reference value :  1.01771e-05
 Reference value :  1.02586e-05
 Reference value :  1.03719e-05
 Reference value :  1.05764e-05
 Reference value :  1.08081e-05
 Reference value :  1.10005e-05
 Reference value :  1.10005e-05
 Reference value :  1.10006e-05
 Reference value :  1.10008e-05
 Reference value :  1.10010e-05
 Reference value :  1.10010e-05
 Reference value :  1.10011e-05
 Reference value :  1.10012e-05
 Reference value :  1.10014e-05
 Reference value :  1.10018e-05
 Reference value :  1.10021e-05
 Reference value :  1.10027e-05
 Reference value :  1.10040e-05
 Reference value :  1.10064e-05
 Reference value :  1.10113e-05
 Reference value :  1.10211e-05
 Reference value :  1.10407e-05
 Reference value :  1.10677e-05
 Reference value :  1.11031e-05
 Reference value :  1.11512e-05
 Reference value :  1.12212e-05
 Reference value :  1.13122e-05
 Reference value :  1.14603e-05
 Reference value :  1.16433e-05
 Reference value :  1.19092e-05
 Reference value :  1.20000e-05
 Reference value :  1.20000e-05
 Reference value :  1.20001e-05
 Reference value :  1.20003e-05
 Reference value :  1.20005e-05
 Reference value :  1.20005e-05
 Reference value :  1.20005e-05
 Reference value :  1.20006e-05
 Reference value :  1.20007e-05
 Reference value :  1.20009e-05
 Reference value :  1.20012e-05
 Reference value :  1.20020e-05
 Reference value :  1.20035e-05
 Reference value :  1.20060e-05
 Reference value :  1.20086e-05
 Reference value :  1.20140e-05
 Reference value :  1.20192e-05
 Reference value :  1.20298e-05
 Reference value :  1.20509e-05
 Reference value :  1.20732e-05
 Reference value :  1.20981e-05
 Reference value :  1.21370e-05
 Reference value :  1.21885e-05
 Reference value :  1.22709e-05
 Reference value :  1.24044e-05
 Reference value :  1.26270e-05
 Reference value :  1.29147e-05
 Reference value :  1.30005e-05
 Reference value :  1.30006e-05
 Reference value :  1.30007e-05
 Reference value :  1.30009e-05
 Reference value :  1.30010e-05
 Reference value :  1.30010e-05
 Reference value :  1.30011e-05
 Reference value :  1.30012e-05
 Reference value :  1.30014e-05
 Reference value :  1.30018e-05
 Reference value :  1.30021e-05
 Reference value :  1.30027e-05
 Reference value :  1.30039e-05
 Reference value :  1.30064e-05
 Reference value :  1.30113e-05
 Reference value :  1.30211e-05
 Reference value :  1.30406e-05
 Reference value :  1.30678e-05
 Reference value :  1.31032e-05
 Reference value :  1.31515e-05
 Reference value :  1.32219e-05
 Reference value :  1.33138e-05
 Reference value :  1.34236e-05
 Reference value :  1.35272e-05
 Reference value :  1.36466e-05
 Reference value :  1.37678e-05
 Reference value :  1.38904e-05
 Reference value :  1.40000e-05
 Reference value :  1.40000e-05
 Reference value :  1.40002e-05
 Reference value :  1.40004e-05
 Reference value :  1.40005e-05
 Reference value :  1.40005e-05
 Reference value :  1.40005e-05
 Reference value :  1.40006e-05
 Reference value :  1.40007e-05
 Reference value :  1.40008e-05
 Reference value :  1.40012e-05
 Reference value :  1.40019e-05
 Reference value :  1.40033e-05
 Reference value :  1.40061e-05
 Reference value :  1.40088e-05
 Reference value :  1.40142e-05
 Reference value :  1.40198e-05
 Reference value :  1.40311e-05
 Reference value :  1.40535e-05
 Reference value :  1.40770e-05
 Reference value :  1.41033e-05
 Reference value :  1.41442e-05
 Reference value :  1.41978e-05
 Reference value :  1.42837e-05
 Reference value :  1.44225e-05
 Reference value :  1.46681e-05
 Reference value :  1.49841e-05
 Reference value :  1.50005e-05
 Reference value :  1.50005e-05
 Reference value :  1.50007e-05
 Reference value :  1.50009e-05
 Reference value :  1.50010e-05
 Reference value :  1.50010e-05
 Reference value :  1.50011e-05
 Reference value :  1.50012e-05
 Reference value :  1.50014e-05
 Reference value :  1.50018e-05
 Reference value :  1.50021e-05
 Reference value :  1.50027e-05
 Reference value :  1.50039e-05
 Reference value :  1.50064e-05
 Reference value :  1.50113e-05
 Reference value :  1.50210e-05
 Reference value :  1.50406e-05
 Reference value :  1.50668e-05
 Reference value :  1.51024e-05
 Reference value :  1.51511e-05
 Reference value :  1.52246e-05
 Reference value :  1.53161e-05
 Reference value :  1.54657e-05
 Reference value :  1.56414e-05
 Reference value :  1.56457e-05
 Reference value :  1.56543e-05
 Reference value :  1.56715e-05
 Reference value :  1.57059e-05
 Reference value :  1.57747e-05
 Reference value :  1.59123e-05
 Reference value :  1.59232e-05
 Reference value :  1.59452e-05
 Reference value :  1.59746e-05
 Reference value :  1.60000e-05
 Reference value :  1.60000e-05
 Reference value :  1.60001e-05
 Reference value :  1.60004e-05
 Reference value :  1.60005e-05
 Reference value :  1.60005e-05
 Reference value :  1.60005e-05
 Reference value :  1.60006e-05
 Reference value :  1.60007e-05
 Reference value :  1.60008e-05
 Reference value :  1.60012e-05
 Reference value :  1.60019e-05
 Reference value :  1.60032e-05
 Reference value :  1.60059e-05
 Reference value :  1.60114e-05
 Reference value :  1.60198e-05
 Reference value :  1.60281e-05
 Reference value :  1.60446e-05
 Reference value :  1.60777e-05
 Reference value :  1.61124e-05
 Reference value :  1.61816e-05
 Reference value :  1.63201e-05
 Reference value :  1.64591e-05
 Reference value :  1.66228e-05
 Reference value :  1.68044e-05
 Reference value :  1.70005e-05
 Reference value :  1.70006e-05
 Reference value :  1.70007e-05
 Reference value :  1.70009e-05
 Reference value :  1.70010e-05
 Reference value :  1.70010e-05
 Reference value :  1.70011e-05
 Reference value :  1.70012e-05
 Reference value :  1.70015e-05
 Reference value :  1.70018e-05
 Reference value :  1.70022e-05
 Reference value :  1.70029e-05
 Reference value :  1.70041e-05
 Reference value :  1.70067e-05
 Reference value :  1.70118e-05
 Reference value :  1.70220e-05
 Reference value :  1.70425e-05
 Reference value :  1.70834e-05
 Reference value :  1.71297e-05
 Reference value :  1.72059e-05
 Reference value :  1.73069e-05
 Reference value :  1.74896e-05
 Reference value :  1.77514e-05
 Reference value :  1.80000e-05
 Reference value :  1.80001e-05
 Reference value :  1.80002e-05
 Reference value :  1.80004e-05
 Reference value :  1.80005e-05
 Reference value :  1.80005e-05
 Reference value :  1.80005e-05
 Reference value :  1.80006e-05
 Reference value :  1.80007e-05
 Reference value :  1.80008e-05
 Reference value :  1.80012e-05
 Reference value :  1.80019e-05
 Reference value :  1.80033e-05
 Reference value :  1.80060e-05
 Reference value :  1.80116e-05
 Reference value :  1.80227e-05
 Reference value :  1.80449e-05
 Reference value :  1.80892e-05
 Reference value :  1.81780e-05
 Reference value :  1.83115e-05
 Reference value :  1.84858e-05
 Reference value :  1.87386e-05
 Reference value :  1.90005e-05
 Reference value :  1.90006e-05
 Reference value :  1.90007e-05
 Reference value :  1.90009e-05
 Reference value :  1.90010e-05
 Reference value :  1.90010e-05
 Reference value :  1.90011e-05
 Reference value :  1.90012e-05
 Reference value :  1.90015e-05
 Reference value :  1.90018e-05
 Reference value :  1.90022e-05
 Reference value :  1.90029e-05
 Reference value :  1.90042e-05
 Reference value :  1.90068e-05
 Reference value :  1.90120e-05
 Reference value :  1.90223e-05
 Reference value :  1.90431e-05
 Reference value :  1.90845e-05
 Reference value :  1.91674e-05
 Reference value :  1.93333e-05
 Reference value :  1.95649e-05
 Reference value :  1.95717e-05
 Reference value :  1.95853e-05
 Reference value :  1.96125e-05
 Reference value :  1.96669e-05
 Reference value :  1.97463e-05
 Reference value :  1.98479e-05
 Reference value :  1.99185e-05
 Reference value :  1.99884e-05
 Reference value :  2.00000e-05
 Reference value :  2.00001e-05
 Reference value :  2.00002e-05
 Reference value :  2.00004e-05
 Reference value :  2.00005e-05
 Reference value :  2.00005e-05
 Reference value :  2.00005e-05
 Reference value :  2.00006e-05
 Reference value :  2.00007e-05
 Reference value :  2.00008e-05
 Reference value :  2.00012e-05
 Reference value :  2.00019e-05
 Reference value :  2.00033e-05
 Reference value :  2.00060e-05
 Reference value :  2.00116e-05
 Reference value :  2.00227e-05
 Reference value :  2.00448e-05
 Reference value :  2.00892e-05
 Reference value :  2.01778e-05
 Reference value :  2.03169e-05
 Reference value :  2.05437e-05
 Reference value :  2.07819e-05
 Reference value :  2.10005e-05
 Reference value :  2.10005e-05
 Reference value :  2.10006e-05
 Reference value :  2.10008e-05
 Reference value :  2.10010e-05
 Reference value :  2.10010e-05
 Reference value :  2.10011e-05
 Reference value :  2.10012e-05
 Reference value :  2.10015e-05
 Reference value :  2.10018e-05
 Reference value :  2.10022e-05
 Reference value :  2.10029e-05
 Reference value :  2.10042e-05
 Reference value :  2.10068e-05
 Reference value :  2.10120e-05
 Reference value :  2.10223e-05
 Reference value :  2.10431e-05
 Reference value :  2.10846e-05
 Reference value :  2.11676e-05
 Reference value :  2.13336e-05
 Reference value :  2.16040e-05
 Reference value :  2.20000e-05
 Reference value :  2.20000e-05
 Reference value :  2.20001e-05
 Reference value :  2.20004e-05
 Reference value :  2.20005e-05
 Reference value :  2.20005e-05
 Reference value :  2.20005e-05
 Reference value :  2.20006e-05
 Reference value :  2.20007e-05
 Reference value :  2.20009e-05
 Reference value :  2.20012e-05
 Reference value :  2.20019e-05
 Reference value :  2.20034e-05
 Reference value :  2.20063e-05
 Reference value :  2.20121e-05
 Reference value :  2.20237e-05
 Reference value :  2.20470e-05
 Reference value :  2.20935e-05
 Reference value :  2.21865e-05
 Reference value :  2.23328e-05
 Reference value :  2.25761e-05
 Reference value :  2.28261e-05
 Reference value :  2.30005e-05
 Reference value :  2.30005e-05
 Reference value :  2.30006e-05
 Reference value :  2.30008e-05
 Reference value :  2.30010e-05
 Reference value :  2.30010e-05
 Reference value :  2.30011e-05
 Reference value :  2.30012e-05
 Reference value :  2.30015e-05
 Reference value :  2.30018e-05
 Reference value :  2.30022e-05
 Reference value :  2.30029e-05
 Reference value :  2.30042e-05
 Reference value :  2.30068e-05
 Reference value :  2.30120e-05
 Reference value :  2.30223e-05
 Reference value :  2.30431e-05
 Reference value :  2.30846e-05
 Reference value :  2.31676e-05
 Reference value :  2.33336e-05
 Reference value :  2.36143e-05
 Reference value :  2.40000e-05
 Reference value :  2.40001e-05
 Reference value :  2.40002e-05
 Reference value :  2.40004e-05
 Reference value :  2.40005e-05
 Reference value :  2.40005e-05
 Reference value :  2.40005e-05
 Reference value :  2.40006e-05
 Reference value :  2.40007e-05
 Reference value :  2.40009e-05
 Reference value :  2.40012e-05
 Reference value :  2.40020e-05
 Reference value :  2.40035e-05
 Reference value :  2.40065e-05
 Reference value :  2.40125e-05
 Reference value :  2.40244e-05
 Reference value :  2.40483e-05
 Reference value :  2.40962e-05
 Reference value :  2.41919e-05
 Reference value :  2.43430e-05
 Reference value :  2.45713e-05
 Reference value :  2.48363e-05
 Reference value :  2.50005e-05
 Reference value :  2.50005e-05
 Reference value :  2.50006e-05
 Reference value :  2.50008e-05
 Reference value :  2.50010e-05
 Reference value :  2.50010e-05
 Reference value :  2.50011e-05
 Reference value :  2.50012e-05
 Reference value :  2.50015e-05
 Reference value :  2.50018e-05
 Reference value :  2.50022e-05
 Reference value :  2.50029e-05
 Reference value :  2.50042e-05
 Reference value :  2.50068e-05
 Reference value :  2.50120e-05
 Reference value :  2.50224e-05
 Reference value :  2.50431e-05
 Reference value :  2.50846e-05
 Reference value :  2.51677e-05
 Reference value :  2.53338e-05
 Reference value :  2.56215e-05
 Reference value :  2.60000e-05
 Reference value :  2.60001e-05
 Reference value :  2.60002e-05
 Reference value :  2.60004e-05
 Reference value :  2.60005e-05
 Reference value :  2.60005e-05
 Reference value :  2.60005e-05
 Reference value :  2.60006e-05
 Reference value :  2.60007e-05
 Reference value :  2.60009e-05
 Reference value :  2.60012e-05
 Reference value :  2.60020e-05
 Reference value :  2.60035e-05
 Reference value :  2.60066e-05
 Reference value :  2.60127e-05
 Reference value :  2.60248e-05
 Reference value :  2.60492e-05
 Reference value :  2.60979e-05
 Reference value :  2.61916e-05
 Reference value :  2.63487e-05
 Reference value :  2.65752e-05
 Reference value :  2.68449e-05
 Reference value :  2.70005e-05
 Reference value :  2.70006e-05
 Reference value :  2.70007e-05
 Reference value :  2.70009e-05
 Reference value :  2.70010e-05
 Reference value :  2.70010e-05
 Reference value :  2.70011e-05
 Reference value :  2.70012e-05
 Reference value :  2.70015e-05
 Reference value :  2.70018e-05
 Reference value :  2.70022e-05
 Reference value :  2.70029e-05
 Reference value :  2.70042e-05
 Reference value :  2.70068e-05
 Reference value :  2.70120e-05
 Reference value :  2.70224e-05
 Reference value :  2.70432e-05
 Reference value :  2.70847e-05
 Reference value :  2.71679e-05
 Reference value :  2.73341e-05
 Reference value :  2.76317e-05
 Reference value :  2.80000e-05
 Reference value :  2.80000e-05
 Reference value :  2.80001e-05
 Reference value :  2.80004e-05
 Reference value :  2.80005e-05
 Reference value :  2.80005e-05
 Reference value :  2.80005e-05
 Reference value :  2.80006e-05
 Reference value :  2.80007e-05
 Reference value :  2.80009e-05
 Reference value :  2.80013e-05
 Reference value :  2.80020e-05
 Reference value :  2.80036e-05
 Reference value :  2.80067e-05
 Reference value :  2.80128e-05
 Reference value :  2.80252e-05
 Reference value :  2.80499e-05
 Reference value :  2.80993e-05
 Reference value :  2.81982e-05
 Reference value :  2.83561e-05
 Reference value :  2.85746e-05
 Reference value :  2.88561e-05
 Reference value :  2.90005e-05
 Reference value :  2.90006e-05
 Reference value :  2.90007e-05
 Reference value :  2.90009e-05
 Reference value :  2.90010e-05
 Reference value :  2.90010e-05
 Reference value :  2.90011e-05
 Reference value :  2.90012e-05
 Reference value :  2.90015e-05
 Reference value :  2.90018e-05
 Reference value :  2.90022e-05
 Reference value :  2.90029e-05
 Reference value :  2.90042e-05
 Reference value :  2.90068e-05
 Reference value :  2.90120e-05
 Reference value :  2.90224e-05
 Reference value :  2.90432e-05
 Reference value :  2.90847e-05
 Reference value :  2.91679e-05
 Reference value :  2.93035e-05
 Reference value :  2.94571e-05
 Reference value :  2.95614e-05
 Reference value :  2.96720e-05
 Reference value :  2.97919e-05
 Reference value :  3.00000e-05
 Reference value :  3.00001e-05
 Reference value :  3.00002e-05
 Reference value :  3.00004e-05
 Reference value :  3.00005e-05
 Reference value :  3.00005e-05
 Reference value :  3.00005e-05
 Reference value :  3.00006e-05
 Reference value :  3.00007e-05
 Reference value :  3.00009e-05
 Reference value :  3.00013e-05
 Reference value :  3.00020e-05
 Reference value :  3.00036e-05
 Reference value :  3.00067e-05
 Reference value :  3.00130e-05
 Reference value :  3.00255e-05
 Reference value :  3.00504e-05
 Reference value :  3.01004e-05
 Reference value :  3.02003e-05
 Reference value :  3.03609e-05
 Reference value :  3.05807e-05
 Reference value :  3.08661e-05
 Reference value :  3.10005e-05
 Reference value :  3.10005e-05
 Reference value :  3.10006e-05
 Reference value :  3.10008e-05
 Reference value :  3.10010e-05
 Reference value :  3.10010e-05
 Reference value :  3.10011e-05
 Reference value :  3.10012e-05
 Reference value :  3.10015e-05
 Reference value :  3.10018e-05
 Reference value :  3.10022e-05
 Reference value :  3.10029e-05
 Reference value :  3.10042e-05
 Reference value :  3.10068e-05
 Reference value :  3.10120e-05
 Reference value :  3.10224e-05
 Reference value :  3.10432e-05
 Reference value :  3.10848e-05
 Reference value :  3.11680e-05
 Reference value :  3.13344e-05
 Reference value :  3.16385e-05
 Reference value :  3.20000e-05
 Reference value :  3.20000e-05
 Reference value :  3.20001e-05
 Reference value :  3.20003e-05
 Reference value :  3.20005e-05
 Reference value :  3.20005e-05
 Reference value :  3.20005e-05
 Reference value :  3.20006e-05
 Reference value :  3.20007e-05
 Reference value :  3.20009e-05
 Reference value :  3.20013e-05
 Reference value :  3.20021e-05
 Reference value :  3.20036e-05
 Reference value :  3.20068e-05
 Reference value :  3.20130e-05
 Reference value :  3.20256e-05
 Reference value :  3.20507e-05
 Reference value :  3.21009e-05
 Reference value :  3.22013e-05
 Reference value :  3.23627e-05
 Reference value :  3.25741e-05
 Reference value :  3.28651e-05
 Reference value :  3.30005e-05
 Reference value :  3.30006e-05
 Reference value :  3.30007e-05
 Reference value :  3.30009e-05
 Reference value :  3.30010e-05
 Reference value :  3.30010e-05
 Reference value :  3.30011e-05
 Reference value :  3.30012e-05
 Reference value :  3.30015e-05
 Reference value :  3.30018e-05
 Reference value :  3.30022e-05
 Reference value :  3.30029e-05
 Reference value :  3.30042e-05
 Reference value :  3.30068e-05
 Reference value :  3.30120e-05
 Reference value :  3.30224e-05
 Reference value :  3.30432e-05
 Reference value :  3.30847e-05
 Reference value :  3.31679e-05
 Reference value :  3.33342e-05
 Reference value :  3.36329e-05
 Reference value :  3.40000e-05
No. of Data Rows : 914
ngspice-44 done
