
Note: Compatibility modes selected: hs a


Circuit: ** sch_path: /home/ece/cace/sar-adc-using-sky130-pdk/runs/run_2025-09-11_04-25-45/parameters/dnl/run_0/sar_output_dnl.sch

option SCALE: Scale is set to 1e-06 for instance and model parameters
option SCALE: Scale is set to 1e-06 for instance and model parameters
option SCALE: Scale is set to 1e-06 for instance and model parameters
option SCALE: Scale is set to 1e-06 for instance and model parameters
Doing analysis at TEMP = 27.000000 and TNOM = 27.000000

Using KLU as Direct Linear Solver
Operating point simulation skipped by 'uic',
  now using transient initial conditions.
 Reference value :  1.00000e-12
 Reference value :  1.02772e-12
 Reference value :  1.08316e-12
 Reference value :  1.19404e-12
 Reference value :  1.33849e-12
 Reference value :  1.62739e-12
 Reference value :  2.20519e-12
 Reference value :  3.06319e-12
 Reference value :  3.96391e-12
 Reference value :  5.17294e-12
 Reference value :  6.88263e-12
 Reference value :  1.00060e-11
 Reference value :  1.36529e-11
 Reference value :  2.02851e-11
 Reference value :  2.71709e-11
 Reference value :  3.60265e-11
 Reference value :  4.68913e-11
 Reference value :  6.51859e-11
 Reference value :  8.54141e-11
 Reference value :  1.00000e-10
 Reference value :  1.01212e-10
 Reference value :  1.03635e-10
 Reference value :  1.08482e-10
 Reference value :  1.18175e-10
 Reference value :  1.37562e-10
 Reference value :  1.76336e-10
 Reference value :  2.53884e-10
 Reference value :  4.05813e-10
 Reference value :  5.67969e-10
 Reference value :  8.33766e-10
 Reference value :  1.18800e-09
 Reference value :  1.64515e-09
 Reference value :  2.38037e-09
 Reference value :  3.09238e-09
 Reference value :  3.71856e-09
 Reference value :  4.50584e-09
 Reference value :  5.32618e-09
 Reference value :  6.24107e-09
 Reference value :  7.60962e-09
 Reference value :  8.89158e-09
 Reference value :  9.94071e-09
 Reference value :  1.09556e-08
 Reference value :  1.18421e-08
 Reference value :  1.27952e-08
 Reference value :  1.46819e-08
 Reference value :  1.69959e-08
 Reference value :  2.00364e-08
 Reference value :  2.38311e-08
 Reference value :  2.67862e-08
 Reference value :  2.95237e-08
 Reference value :  3.23392e-08
 Reference value :  3.57560e-08
 Reference value :  4.09309e-08
 Reference value :  4.69976e-08
 Reference value :  5.88925e-08
 Reference value :  7.88225e-08
 Reference value :  1.16844e-07
 Reference value :  1.73794e-07
 Reference value :  2.49145e-07
 Reference value :  2.50100e-07
 Reference value :  2.50110e-07
 Reference value :  2.50130e-07
 Reference value :  2.50170e-07
 Reference value :  2.50200e-07
 Reference value :  2.50201e-07
 Reference value :  2.50202e-07
 Reference value :  2.50204e-07
 Reference value :  2.50208e-07
 Reference value :  2.50216e-07
 Reference value :  2.50233e-07
 Reference value :  2.50267e-07
 Reference value :  2.50335e-07
 Reference value :  2.50412e-07
 Reference value :  2.50567e-07
 Reference value :  2.50716e-07
 Reference value :  2.51015e-07
 Reference value :  2.51339e-07
 Reference value :  2.51860e-07
 Reference value :  2.52428e-07
 Reference value :  2.53221e-07
 Reference value :  2.54044e-07
 Reference value :  2.55122e-07
 Reference value :  2.55874e-07
 Reference value :  2.56731e-07
 Reference value :  2.57737e-07
 Reference value :  2.58847e-07
 Reference value :  2.60171e-07
 Reference value :  2.62412e-07
 Reference value :  2.64465e-07
 Reference value :  2.68068e-07
 Reference value :  2.72829e-07
 Reference value :  2.82350e-07
 Reference value :  2.98889e-07
 Reference value :  3.27147e-07
 Reference value :  3.83664e-07
 Reference value :  4.96698e-07
 Reference value :  5.00000e-07
 Reference value :  5.00010e-07
 Reference value :  5.00030e-07
 Reference value :  5.00070e-07
 Reference value :  5.00100e-07
 Reference value :  5.00104e-07
 Reference value :  5.00112e-07
 Reference value :  5.00129e-07
 Reference value :  5.00162e-07
 Reference value :  5.00229e-07
 Reference value :  5.00362e-07
 Reference value :  5.00537e-07
 Reference value :  5.00888e-07
 Reference value :  5.01502e-07
 Reference value :  5.02193e-07
 Reference value :  5.02817e-07
 Reference value :  5.03504e-07
 Reference value :  5.04212e-07
 Reference value :  5.05148e-07
 Reference value :  5.06118e-07
 Reference value :  5.07100e-07
 Reference value :  5.08379e-07
 Reference value :  5.09807e-07
 Reference value :  5.11739e-07
 Reference value :  5.14069e-07
 Reference value :  5.15916e-07
 Reference value :  5.17905e-07
 Reference value :  5.19991e-07
 Reference value :  5.22394e-07
 Reference value :  5.25104e-07
 Reference value :  5.27935e-07
 Reference value :  5.33189e-07
 Reference value :  5.41575e-07
 Reference value :  5.51296e-07
 Reference value :  5.70738e-07
 Reference value :  6.09623e-07
 Reference value :  6.73426e-07
 Reference value :  7.50100e-07
 Reference value :  7.50110e-07
 Reference value :  7.50130e-07
 Reference value :  7.50170e-07
 Reference value :  7.50200e-07
 Reference value :  7.50201e-07
 Reference value :  7.50202e-07
 Reference value :  7.50205e-07
 Reference value :  7.50211e-07
 Reference value :  7.50224e-07
 Reference value :  7.50248e-07
 Reference value :  7.50297e-07
 Reference value :  7.50395e-07
 Reference value :  7.50590e-07
 Reference value :  7.50977e-07
 Reference value :  7.51389e-07
 Reference value :  7.51911e-07
 Reference value :  7.52518e-07
 Reference value :  7.53316e-07
 Reference value :  7.54225e-07
 Reference value :  7.55414e-07
 Reference value :  7.56519e-07
 Reference value :  7.57522e-07
 Reference value :  7.58609e-07
 Reference value :  7.59815e-07
 Reference value :  7.61113e-07
 Reference value :  7.63557e-07
 Reference value :  7.66725e-07
 Reference value :  7.72290e-07
 Reference value :  7.83420e-07
 Reference value :  8.03446e-07
 Reference value :  8.42147e-07
 Reference value :  9.15407e-07
 Reference value :  1.00000e-06
 Reference value :  1.00001e-06
 Reference value :  1.00003e-06
 Reference value :  1.00007e-06
 Reference value :  1.00010e-06
 Reference value :  1.00010e-06
 Reference value :  1.00011e-06
 Reference value :  1.00013e-06
 Reference value :  1.00016e-06
 Reference value :  1.00023e-06
 Reference value :  1.00036e-06
 Reference value :  1.00054e-06
 Reference value :  1.00089e-06
 Reference value :  1.00151e-06
 Reference value :  1.00220e-06
 Reference value :  1.00282e-06
 Reference value :  1.00346e-06
 Reference value :  1.00415e-06
 Reference value :  1.00499e-06
 Reference value :  1.00587e-06
 Reference value :  1.00672e-06
 Reference value :  1.00777e-06
 Reference value :  1.00888e-06
 Reference value :  1.00997e-06
 Reference value :  1.01100e-06
 Reference value :  1.01243e-06
 Reference value :  1.01413e-06
 Reference value :  1.01684e-06
 Reference value :  1.01885e-06
 Reference value :  1.02101e-06
 Reference value :  1.02262e-06
 Reference value :  1.02414e-06
 Reference value :  1.02558e-06
 Reference value :  1.02714e-06
 Reference value :  1.02887e-06
 Reference value :  1.03113e-06
 Reference value :  1.03350e-06
 Reference value :  1.03815e-06
 Reference value :  1.04458e-06
 Reference value :  1.05583e-06
 Reference value :  1.07396e-06
 Reference value :  1.09985e-06
 Reference value :  1.13934e-06
 Reference value :  1.21715e-06
 Reference value :  1.25010e-06
 Reference value :  1.25011e-06
 Reference value :  1.25013e-06
 Reference value :  1.25017e-06
 Reference value :  1.25020e-06
 Reference value :  1.25020e-06
 Reference value :  1.25020e-06
 Reference value :  1.25021e-06
 Reference value :  1.25021e-06
 Reference value :  1.25022e-06
 Reference value :  1.25025e-06
 Reference value :  1.25029e-06
 Reference value :  1.25039e-06
 Reference value :  1.25058e-06
 Reference value :  1.25092e-06
 Reference value :  1.25135e-06
 Reference value :  1.25187e-06
 Reference value :  1.25248e-06
 Reference value :  1.25324e-06
 Reference value :  1.25412e-06
 Reference value :  1.25531e-06
 Reference value :  1.25621e-06
 Reference value :  1.25716e-06
 Reference value :  1.25824e-06
 Reference value :  1.25979e-06
 Reference value :  1.26124e-06
 Reference value :  1.26376e-06
 Reference value :  1.26673e-06
 Reference value :  1.27221e-06
 Reference value :  1.28319e-06
 Reference value :  1.30281e-06
 Reference value :  1.34205e-06
 Reference value :  1.41663e-06
 Reference value :  1.50000e-06
 Reference value :  1.50001e-06
 Reference value :  1.50003e-06
 Reference value :  1.50007e-06
 Reference value :  1.50010e-06
 Reference value :  1.50010e-06
 Reference value :  1.50011e-06
 Reference value :  1.50013e-06
 Reference value :  1.50016e-06
 Reference value :  1.50023e-06
 Reference value :  1.50036e-06
 Reference value :  1.50053e-06
 Reference value :  1.50087e-06
 Reference value :  1.50145e-06
 Reference value :  1.50221e-06
 Reference value :  1.50288e-06
 Reference value :  1.50356e-06
 Reference value :  1.50426e-06
 Reference value :  1.50525e-06
 Reference value :  1.50620e-06
 Reference value :  1.50718e-06
 Reference value :  1.50863e-06
 Reference value :  1.51001e-06
 Reference value :  1.51130e-06
 Reference value :  1.51269e-06
 Reference value :  1.51421e-06
 Reference value :  1.51589e-06
 Reference value :  1.51744e-06
 Reference value :  1.51949e-06
 Reference value :  1.52170e-06
 Reference value :  1.52557e-06
 Reference value :  1.53142e-06
 Reference value :  1.54166e-06
 Reference value :  1.56066e-06
 Reference value :  1.59414e-06
 Reference value :  1.65797e-06
 Reference value :  1.75010e-06
 Reference value :  1.75011e-06
 Reference value :  1.75013e-06
 Reference value :  1.75017e-06
 Reference value :  1.75020e-06
 Reference value :  1.75020e-06
 Reference value :  1.75020e-06
 Reference value :  1.75021e-06
 Reference value :  1.75021e-06
 Reference value :  1.75022e-06
 Reference value :  1.75025e-06
 Reference value :  1.75029e-06
 Reference value :  1.75039e-06
 Reference value :  1.75058e-06
 Reference value :  1.75092e-06
 Reference value :  1.75135e-06
 Reference value :  1.75187e-06
 Reference value :  1.75248e-06
 Reference value :  1.75324e-06
 Reference value :  1.75411e-06
 Reference value :  1.75529e-06
 Reference value :  1.75619e-06
 Reference value :  1.75714e-06
 Reference value :  1.75818e-06
 Reference value :  1.75931e-06
 Reference value :  1.76052e-06
 Reference value :  1.76295e-06
 Reference value :  1.76558e-06
 Reference value :  1.77020e-06
 Reference value :  1.77854e-06
 Reference value :  1.79522e-06
 Reference value :  1.82859e-06
 Reference value :  1.89349e-06
 Reference value :  2.00000e-06
 Reference value :  2.00001e-06
 Reference value :  2.00003e-06
 Reference value :  2.00007e-06
 Reference value :  2.00010e-06
 Reference value :  2.00010e-06
 Reference value :  2.00011e-06
 Reference value :  2.00013e-06
 Reference value :  2.00016e-06
 Reference value :  2.00023e-06
 Reference value :  2.00036e-06
 Reference value :  2.00053e-06
 Reference value :  2.00087e-06
 Reference value :  2.00145e-06
 Reference value :  2.00221e-06
 Reference value :  2.00288e-06
 Reference value :  2.00356e-06
 Reference value :  2.00427e-06
 Reference value :  2.00525e-06
 Reference value :  2.00603e-06
 Reference value :  2.00686e-06
 Reference value :  2.00785e-06
 Reference value :  2.00893e-06
 Reference value :  2.00992e-06
 Reference value :  2.01096e-06
 Reference value :  2.01237e-06
 Reference value :  2.01398e-06
 Reference value :  2.01628e-06
 Reference value :  2.01849e-06
 Reference value :  2.02053e-06
 Reference value :  2.02215e-06
 Reference value :  2.02370e-06
 Reference value :  2.02530e-06
 Reference value :  2.02697e-06
 Reference value :  2.02890e-06
 Reference value :  2.03082e-06
 Reference value :  2.03343e-06
 Reference value :  2.03795e-06
 Reference value :  2.04329e-06
 Reference value :  2.04864e-06
 Reference value :  2.05640e-06
 Reference value :  2.06408e-06
 Reference value :  2.06970e-06
 Reference value :  2.07452e-06
 Reference value :  2.07968e-06
 Reference value :  2.08617e-06
 Reference value :  2.09320e-06
 Reference value :  2.10020e-06
 Reference value :  2.10744e-06
 Reference value :  2.12192e-06
 Reference value :  2.13742e-06
 Reference value :  2.16314e-06
 Reference value :  2.19924e-06
 Reference value :  2.25010e-06
 Reference value :  2.25011e-06
 Reference value :  2.25013e-06
 Reference value :  2.25017e-06
 Reference value :  2.25020e-06
 Reference value :  2.25020e-06
 Reference value :  2.25020e-06
 Reference value :  2.25021e-06
 Reference value :  2.25021e-06
 Reference value :  2.25022e-06
 Reference value :  2.25025e-06
 Reference value :  2.25030e-06
 Reference value :  2.25039e-06
 Reference value :  2.25059e-06
 Reference value :  2.25094e-06
 Reference value :  2.25136e-06
 Reference value :  2.25188e-06
 Reference value :  2.25249e-06
 Reference value :  2.25325e-06
 Reference value :  2.25413e-06
 Reference value :  2.25527e-06
 Reference value :  2.25621e-06
 Reference value :  2.25719e-06
 Reference value :  2.25829e-06
 Reference value :  2.25984e-06
 Reference value :  2.26148e-06
 Reference value :  2.26387e-06
 Reference value :  2.26705e-06
 Reference value :  2.27252e-06
 Reference value :  2.28345e-06
 Reference value :  2.30278e-06
 Reference value :  2.34043e-06
 Reference value :  2.41135e-06
 Reference value :  2.50000e-06
 Reference value :  2.50001e-06
 Reference value :  2.50003e-06
 Reference value :  2.50007e-06
 Reference value :  2.50010e-06
 Reference value :  2.50010e-06
 Reference value :  2.50011e-06
 Reference value :  2.50013e-06
 Reference value :  2.50016e-06
 Reference value :  2.50023e-06
 Reference value :  2.50036e-06
 Reference value :  2.50053e-06
 Reference value :  2.50087e-06
 Reference value :  2.50145e-06
 Reference value :  2.50221e-06
 Reference value :  2.50284e-06
 Reference value :  2.50350e-06
 Reference value :  2.50419e-06
 Reference value :  2.50515e-06
 Reference value :  2.50611e-06
 Reference value :  2.50707e-06
 Reference value :  2.50855e-06
 Reference value :  2.50991e-06
 Reference value :  2.51128e-06
 Reference value :  2.51284e-06
 Reference value :  2.51460e-06
 Reference value :  2.51628e-06
 Reference value :  2.51820e-06
 Reference value :  2.52041e-06
 Reference value :  2.52426e-06
 Reference value :  2.53028e-06
 Reference value :  2.54136e-06
 Reference value :  2.56285e-06
 Reference value :  2.60151e-06
 Reference value :  2.67883e-06
 Reference value :  2.75010e-06
 Reference value :  2.75011e-06
 Reference value :  2.75013e-06
 Reference value :  2.75017e-06
 Reference value :  2.75020e-06
 Reference value :  2.75020e-06
 Reference value :  2.75020e-06
 Reference value :  2.75021e-06
 Reference value :  2.75021e-06
 Reference value :  2.75022e-06
 Reference value :  2.75025e-06
 Reference value :  2.75030e-06
 Reference value :  2.75039e-06
 Reference value :  2.75059e-06
 Reference value :  2.75094e-06
 Reference value :  2.75136e-06
 Reference value :  2.75188e-06
 Reference value :  2.75249e-06
 Reference value :  2.75325e-06
 Reference value :  2.75413e-06
 Reference value :  2.75531e-06
 Reference value :  2.75623e-06
 Reference value :  2.75720e-06
 Reference value :  2.75823e-06
 Reference value :  2.75934e-06
 Reference value :  2.76056e-06
 Reference value :  2.76184e-06
 Reference value :  2.76324e-06
 Reference value :  2.76536e-06
 Reference value :  2.76769e-06
 Reference value :  2.77128e-06
 Reference value :  2.77695e-06
 Reference value :  2.78829e-06
 Reference value :  2.81096e-06
 Reference value :  2.85626e-06
 Reference value :  2.94686e-06
 Reference value :  3.00000e-06
 Reference value :  3.00001e-06
 Reference value :  3.00003e-06
 Reference value :  3.00007e-06
 Reference value :  3.00010e-06
 Reference value :  3.00010e-06
 Reference value :  3.00011e-06
 Reference value :  3.00013e-06
 Reference value :  3.00016e-06
 Reference value :  3.00023e-06
 Reference value :  3.00036e-06
 Reference value :  3.00053e-06
 Reference value :  3.00087e-06
 Reference value :  3.00144e-06
 Reference value :  3.00221e-06
 Reference value :  3.00288e-06
 Reference value :  3.00356e-06
 Reference value :  3.00427e-06
 Reference value :  3.00513e-06
 Reference value :  3.00590e-06
 Reference value :  3.00673e-06
 Reference value :  3.00780e-06
 Reference value :  3.00879e-06
 Reference value :  3.00972e-06
 Reference value :  3.01075e-06
 Reference value :  3.01209e-06
 Reference value :  3.01365e-06
 Reference value :  3.01522e-06
 Reference value :  3.01693e-06
 Reference value :  3.01855e-06
 Reference value :  3.02025e-06
 Reference value :  3.02150e-06
 Reference value :  3.02268e-06
 Reference value :  3.02410e-06
 Reference value :  3.02558e-06
 Reference value :  3.02696e-06
 Reference value :  3.02869e-06
 Reference value :  3.03085e-06
 Reference value :  3.03321e-06
 Reference value :  3.03763e-06
 Reference value :  3.04410e-06
 Reference value :  3.05535e-06
 Reference value :  3.06569e-06
 Reference value :  3.07592e-06
 Reference value :  3.08402e-06
 Reference value :  3.08758e-06
 Reference value :  3.09082e-06
 Reference value :  3.09436e-06
 Reference value :  3.09999e-06
 Reference value :  3.10671e-06
 Reference value :  3.11655e-06
 Reference value :  3.13052e-06
 Reference value :  3.14988e-06
 Reference value :  3.18287e-06
 Reference value :  3.21385e-06
 Reference value :  3.25010e-06
 Reference value :  3.25011e-06
 Reference value :  3.25013e-06
 Reference value :  3.25017e-06
 Reference value :  3.25020e-06
 Reference value :  3.25020e-06
 Reference value :  3.25020e-06
 Reference value :  3.25021e-06
 Reference value :  3.25021e-06
 Reference value :  3.25022e-06
 Reference value :  3.25025e-06
 Reference value :  3.25030e-06
 Reference value :  3.25039e-06
 Reference value :  3.25059e-06
 Reference value :  3.25094e-06
 Reference value :  3.25136e-06
 Reference value :  3.25188e-06
 Reference value :  3.25249e-06
 Reference value :  3.25325e-06
 Reference value :  3.25413e-06
 Reference value :  3.25532e-06
 Reference value :  3.25622e-06
 Reference value :  3.25718e-06
 Reference value :  3.25826e-06
 Reference value :  3.25982e-06
 Reference value :  3.26128e-06
 Reference value :  3.26378e-06
 Reference value :  3.26679e-06
 Reference value :  3.27231e-06
 Reference value :  3.28335e-06
 Reference value :  3.30256e-06
 Reference value :  3.34098e-06
 Reference value :  3.41268e-06
 Reference value :  3.50000e-06
 Reference value :  3.50001e-06
 Reference value :  3.50003e-06
 Reference value :  3.50007e-06
 Reference value :  3.50010e-06
 Reference value :  3.50010e-06
 Reference value :  3.50011e-06
 Reference value :  3.50013e-06
 Reference value :  3.50016e-06
 Reference value :  3.50023e-06
 Reference value :  3.50036e-06
 Reference value :  3.50053e-06
 Reference value :  3.50087e-06
 Reference value :  3.50145e-06
 Reference value :  3.50221e-06
 Reference value :  3.50288e-06
 Reference value :  3.50356e-06
 Reference value :  3.50426e-06
 Reference value :  3.50524e-06
 Reference value :  3.50619e-06
 Reference value :  3.50717e-06
 Reference value :  3.50861e-06
 Reference value :  3.51000e-06
 Reference value :  3.51128e-06
 Reference value :  3.51264e-06
 Reference value :  3.51417e-06
 Reference value :  3.51583e-06
 Reference value :  3.51764e-06
 Reference value :  3.51966e-06
 Reference value :  3.52354e-06
 Reference value :  3.52952e-06
 Reference value :  3.54149e-06
 Reference value :  3.56411e-06
 Reference value :  3.60472e-06
 Reference value :  3.64780e-06
 Reference value :  3.69051e-06
 Reference value :  3.71819e-06
 Reference value :  3.74610e-06
 Reference value :  3.75010e-06
 Reference value :  3.75011e-06
 Reference value :  3.75013e-06
 Reference value :  3.75017e-06
 Reference value :  3.75020e-06
 Reference value :  3.75020e-06
 Reference value :  3.75020e-06
 Reference value :  3.75021e-06
 Reference value :  3.75021e-06
 Reference value :  3.75022e-06
 Reference value :  3.75025e-06
 Reference value :  3.75029e-06
 Reference value :  3.75039e-06
 Reference value :  3.75058e-06
 Reference value :  3.75092e-06
 Reference value :  3.75134e-06
 Reference value :  3.75187e-06
 Reference value :  3.75248e-06
 Reference value :  3.75323e-06
 Reference value :  3.75411e-06
 Reference value :  3.75530e-06
 Reference value :  3.75620e-06
 Reference value :  3.75715e-06
 Reference value :  3.75820e-06
 Reference value :  3.75934e-06
 Reference value :  3.76055e-06
 Reference value :  3.76184e-06
 Reference value :  3.76323e-06
 Reference value :  3.76543e-06
 Reference value :  3.76776e-06
 Reference value :  3.77131e-06
 Reference value :  3.77689e-06
 Reference value :  3.78806e-06
 Reference value :  3.81038e-06
 Reference value :  3.84171e-06
 Reference value :  3.87400e-06
 Reference value :  3.91261e-06
 Reference value :  3.98064e-06
 Reference value :  4.00000e-06
 Reference value :  4.00001e-06
 Reference value :  4.00003e-06
 Reference value :  4.00007e-06
 Reference value :  4.00010e-06
 Reference value :  4.00010e-06
 Reference value :  4.00011e-06
 Reference value :  4.00013e-06
 Reference value :  4.00016e-06
 Reference value :  4.00023e-06
 Reference value :  4.00036e-06
 Reference value :  4.00053e-06
 Reference value :  4.00087e-06
 Reference value :  4.00144e-06
 Reference value :  4.00221e-06
 Reference value :  4.00288e-06
 Reference value :  4.00356e-06
 Reference value :  4.00427e-06
 Reference value :  4.00514e-06
 Reference value :  4.00590e-06
 Reference value :  4.00673e-06
 Reference value :  4.00781e-06
 Reference value :  4.00879e-06
 Reference value :  4.00975e-06
 Reference value :  4.01077e-06
 Reference value :  4.01208e-06
 Reference value :  4.01371e-06
 Reference value :  4.01492e-06
 Reference value :  4.01629e-06
 Reference value :  4.01768e-06
 Reference value :  4.01927e-06
 Reference value :  4.02096e-06
 Reference value :  4.02257e-06
 Reference value :  4.02412e-06
 Reference value :  4.02562e-06
 Reference value :  4.02719e-06
 Reference value :  4.02866e-06
 Reference value :  4.03030e-06
 Reference value :  4.03187e-06
 Reference value :  4.03370e-06
 Reference value :  4.03734e-06
 Reference value :  4.04341e-06
 Reference value :  4.05173e-06
 Reference value :  4.06835e-06
 Reference value :  4.09132e-06
 Reference value :  4.11262e-06
 Reference value :  4.13385e-06
 Reference value :  4.15614e-06
 Reference value :  4.18772e-06
 Reference value :  4.22721e-06
 Reference value :  4.25010e-06
 Reference value :  4.25011e-06
 Reference value :  4.25013e-06
 Reference value :  4.25017e-06
 Reference value :  4.25020e-06
 Reference value :  4.25020e-06
 Reference value :  4.25020e-06
 Reference value :  4.25021e-06
 Reference value :  4.25021e-06
 Reference value :  4.25022e-06
 Reference value :  4.25025e-06
 Reference value :  4.25029e-06
 Reference value :  4.25039e-06
 Reference value :  4.25058e-06
 Reference value :  4.25092e-06
 Reference value :  4.25134e-06
 Reference value :  4.25187e-06
 Reference value :  4.25248e-06
 Reference value :  4.25323e-06
 Reference value :  4.25411e-06
 Reference value :  4.25530e-06
 Reference value :  4.25619e-06
 Reference value :  4.25713e-06
 Reference value :  4.25819e-06
 Reference value :  4.25959e-06
 Reference value :  4.26103e-06
 Reference value :  4.26348e-06
 Reference value :  4.26634e-06
 Reference value :  4.27129e-06
 Reference value :  4.28121e-06
 Reference value :  4.29991e-06
 Reference value :  4.33605e-06
 Reference value :  4.40722e-06
 Reference value :  4.50000e-06
 Reference value :  4.50001e-06
 Reference value :  4.50003e-06
 Reference value :  4.50007e-06
 Reference value :  4.50010e-06
 Reference value :  4.50010e-06
 Reference value :  4.50011e-06
 Reference value :  4.50013e-06
 Reference value :  4.50016e-06
 Reference value :  4.50023e-06
 Reference value :  4.50036e-06
 Reference value :  4.50053e-06
 Reference value :  4.50087e-06
 Reference value :  4.50145e-06
 Reference value :  4.50221e-06
 Reference value :  4.50288e-06
 Reference value :  4.50356e-06
 Reference value :  4.50426e-06
 Reference value :  4.50524e-06
 Reference value :  4.50619e-06
 Reference value :  4.50715e-06
 Reference value :  4.50859e-06
 Reference value :  4.50997e-06
 Reference value :  4.51121e-06
 Reference value :  4.51250e-06
 Reference value :  4.51380e-06
 Reference value :  4.51533e-06
 Reference value :  4.51699e-06
 Reference value :  4.51873e-06
 Reference value :  4.52222e-06
 Reference value :  4.52919e-06
 Reference value :  4.54099e-06
 Reference value :  4.56458e-06
 Reference value :  4.60888e-06
 Reference value :  4.69177e-06
 Reference value :  4.75010e-06
 Reference value :  4.75011e-06
 Reference value :  4.75013e-06
 Reference value :  4.75017e-06
 Reference value :  4.75020e-06
 Reference value :  4.75020e-06
 Reference value :  4.75020e-06
 Reference value :  4.75021e-06
 Reference value :  4.75021e-06
 Reference value :  4.75022e-06
 Reference value :  4.75025e-06
 Reference value :  4.75030e-06
 Reference value :  4.75039e-06
 Reference value :  4.75059e-06
 Reference value :  4.75093e-06
 Reference value :  4.75136e-06
 Reference value :  4.75188e-06
 Reference value :  4.75249e-06
 Reference value :  4.75325e-06
 Reference value :  4.75413e-06
 Reference value :  4.75531e-06
 Reference value :  4.75623e-06
 Reference value :  4.75719e-06
 Reference value :  4.75822e-06
 Reference value :  4.75933e-06
 Reference value :  4.76056e-06
 Reference value :  4.76300e-06
 Reference value :  4.76567e-06
 Reference value :  4.77033e-06
 Reference value :  4.77886e-06
 Reference value :  4.79593e-06
 Reference value :  4.82941e-06
 Reference value :  4.89524e-06
 Reference value :  5.00000e-06
 Reference value :  5.00001e-06
 Reference value :  5.00003e-06
 Reference value :  5.00007e-06
 Reference value :  5.00010e-06
 Reference value :  5.00010e-06
 Reference value :  5.00011e-06
 Reference value :  5.00013e-06
 Reference value :  5.00016e-06
 Reference value :  5.00023e-06
 Reference value :  5.00036e-06
 Reference value :  5.00053e-06
 Reference value :  5.00087e-06
 Reference value :  5.00145e-06
 Reference value :  5.00221e-06
 Reference value :  5.00288e-06
 Reference value :  5.00356e-06
 Reference value :  5.00427e-06
 Reference value :  5.00525e-06
 Reference value :  5.00603e-06
 Reference value :  5.00686e-06
 Reference value :  5.00785e-06
 Reference value :  5.00873e-06
 Reference value :  5.00970e-06
 Reference value :  5.01067e-06
 Reference value :  5.01191e-06
 Reference value :  5.01363e-06
 Reference value :  5.01583e-06
 Reference value :  5.01810e-06
 Reference value :  5.02039e-06
 Reference value :  5.02206e-06
 Reference value :  5.02362e-06
 Reference value :  5.02524e-06
 Reference value :  5.02694e-06
 Reference value :  5.02898e-06
 Reference value :  5.03087e-06
 Reference value :  5.03363e-06
 Reference value :  5.03790e-06
 Reference value :  5.04396e-06
 Reference value :  5.05294e-06
 Reference value :  5.06188e-06
 Reference value :  5.07236e-06
 Reference value :  5.08161e-06
 Reference value :  5.08884e-06
 Reference value :  5.09611e-06
 Reference value :  5.10706e-06
 Reference value :  5.11871e-06
 Reference value :  5.12728e-06
 Reference value :  5.13575e-06
 Reference value :  5.14325e-06
 Reference value :  5.15161e-06
 Reference value :  5.16832e-06
 Reference value :  5.18546e-06
 Reference value :  5.21974e-06
 Reference value :  5.25010e-06
 Reference value :  5.25011e-06
 Reference value :  5.25013e-06
 Reference value :  5.25017e-06
 Reference value :  5.25020e-06
 Reference value :  5.25020e-06
 Reference value :  5.25020e-06
 Reference value :  5.25021e-06
 Reference value :  5.25021e-06
 Reference value :  5.25022e-06
 Reference value :  5.25025e-06
 Reference value :  5.25029e-06
 Reference value :  5.25039e-06
 Reference value :  5.25058e-06
 Reference value :  5.25092e-06
 Reference value :  5.25135e-06
 Reference value :  5.25187e-06
 Reference value :  5.25248e-06
 Reference value :  5.25324e-06
 Reference value :  5.25411e-06
 Reference value :  5.25531e-06
 Reference value :  5.25620e-06
 Reference value :  5.25715e-06
 Reference value :  5.25823e-06
 Reference value :  5.25979e-06
 Reference value :  5.26123e-06
 Reference value :  5.26376e-06
 Reference value :  5.26671e-06
 Reference value :  5.27219e-06
 Reference value :  5.28315e-06
 Reference value :  5.30225e-06
 Reference value :  5.34044e-06
 Reference value :  5.41214e-06
 Reference value :  5.50000e-06
 Reference value :  5.50001e-06
 Reference value :  5.50003e-06
 Reference value :  5.50007e-06
 Reference value :  5.50010e-06
 Reference value :  5.50010e-06
 Reference value :  5.50011e-06
 Reference value :  5.50013e-06
 Reference value :  5.50016e-06
 Reference value :  5.50023e-06
 Reference value :  5.50036e-06
 Reference value :  5.50053e-06
 Reference value :  5.50087e-06
 Reference value :  5.50145e-06
 Reference value :  5.50221e-06
 Reference value :  5.50288e-06
 Reference value :  5.50356e-06
 Reference value :  5.50426e-06
 Reference value :  5.50524e-06
 Reference value :  5.50619e-06
 Reference value :  5.50716e-06
 Reference value :  5.50861e-06
 Reference value :  5.50998e-06
 Reference value :  5.51123e-06
 Reference value :  5.51250e-06
 Reference value :  5.51373e-06
 Reference value :  5.51520e-06
 Reference value :  5.51673e-06
 Reference value :  5.51840e-06
 Reference value :  5.52175e-06
 Reference value :  5.52845e-06
 Reference value :  5.53979e-06
 Reference value :  5.56246e-06
 Reference value :  5.60506e-06
 Reference value :  5.68476e-06
 Reference value :  5.75010e-06
 Reference value :  5.75011e-06
 Reference value :  5.75013e-06
 Reference value :  5.75017e-06
 Reference value :  5.75020e-06
 Reference value :  5.75020e-06
 Reference value :  5.75020e-06
 Reference value :  5.75021e-06
 Reference value :  5.75021e-06
 Reference value :  5.75022e-06
 Reference value :  5.75025e-06
 Reference value :  5.75030e-06
 Reference value :  5.75039e-06
 Reference value :  5.75059e-06
 Reference value :  5.75094e-06
 Reference value :  5.75136e-06
 Reference value :  5.75188e-06
 Reference value :  5.75249e-06
 Reference value :  5.75326e-06
 Reference value :  5.75413e-06
 Reference value :  5.75531e-06
 Reference value :  5.75623e-06
 Reference value :  5.75719e-06
 Reference value :  5.75822e-06
 Reference value :  5.75933e-06
 Reference value :  5.76055e-06
 Reference value :  5.76299e-06
 Reference value :  5.76566e-06
 Reference value :  5.77031e-06
 Reference value :  5.77876e-06
 Reference value :  5.79566e-06
 Reference value :  5.82887e-06
 Reference value :  5.89433e-06
 Reference value :  6.00000e-06
 Reference value :  6.00001e-06
 Reference value :  6.00003e-06
 Reference value :  6.00007e-06
 Reference value :  6.00010e-06
 Reference value :  6.00010e-06
 Reference value :  6.00011e-06
 Reference value :  6.00013e-06
 Reference value :  6.00016e-06
 Reference value :  6.00023e-06
 Reference value :  6.00036e-06
 Reference value :  6.00053e-06
 Reference value :  6.00087e-06
 Reference value :  6.00145e-06
 Reference value :  6.00221e-06
 Reference value :  6.00288e-06
 Reference value :  6.00356e-06
 Reference value :  6.00427e-06
 Reference value :  6.00525e-06
 Reference value :  6.00603e-06
 Reference value :  6.00685e-06
 Reference value :  6.00785e-06
 Reference value :  6.00867e-06
 Reference value :  6.00958e-06
 Reference value :  6.01058e-06
 Reference value :  6.01175e-06
 Reference value :  6.01354e-06
 Reference value :  6.01580e-06
 Reference value :  6.01813e-06
 Reference value :  6.02063e-06
 Reference value :  6.02241e-06
 Reference value :  6.02409e-06
 Reference value :  6.02575e-06
 Reference value :  6.02756e-06
 Reference value :  6.02950e-06
 Reference value :  6.03187e-06
 Reference value :  6.03437e-06
 Reference value :  6.03933e-06
 Reference value :  6.04561e-06
 Reference value :  6.05331e-06
 Reference value :  6.06172e-06
 Reference value :  6.06950e-06
 Reference value :  6.07687e-06
 Reference value :  6.08448e-06
 Reference value :  6.09270e-06
 Reference value :  6.10667e-06
 Reference value :  6.11969e-06
 Reference value :  6.13553e-06
 Reference value :  6.14621e-06
 Reference value :  6.15691e-06
 Reference value :  6.16782e-06
 Reference value :  6.17755e-06
 Reference value :  6.18964e-06
 Reference value :  6.21382e-06
 Reference value :  6.24835e-06
 Reference value :  6.25010e-06
 Reference value :  6.25011e-06
 Reference value :  6.25013e-06
 Reference value :  6.25017e-06
 Reference value :  6.25020e-06
 Reference value :  6.25020e-06
 Reference value :  6.25020e-06
 Reference value :  6.25021e-06
 Reference value :  6.25021e-06
 Reference value :  6.25022e-06
 Reference value :  6.25025e-06
 Reference value :  6.25030e-06
 Reference value :  6.25039e-06
 Reference value :  6.25059e-06
 Reference value :  6.25094e-06
 Reference value :  6.25136e-06
 Reference value :  6.25188e-06
 Reference value :  6.25249e-06
 Reference value :  6.25326e-06
 Reference value :  6.25413e-06
 Reference value :  6.25533e-06
 Reference value :  6.25624e-06
 Reference value :  6.25721e-06
 Reference value :  6.25829e-06
 Reference value :  6.25985e-06
 Reference value :  6.26135e-06
 Reference value :  6.26382e-06
 Reference value :  6.26690e-06
 Reference value :  6.27248e-06
 Reference value :  6.28365e-06
 Reference value :  6.30281e-06
 Reference value :  6.34113e-06
 Reference value :  6.41160e-06
 Reference value :  6.50000e-06
 Reference value :  6.50001e-06
 Reference value :  6.50003e-06
 Reference value :  6.50007e-06
 Reference value :  6.50010e-06
 Reference value :  6.50010e-06
 Reference value :  6.50011e-06
 Reference value :  6.50013e-06
 Reference value :  6.50016e-06
 Reference value :  6.50023e-06
 Reference value :  6.50036e-06
 Reference value :  6.50053e-06
 Reference value :  6.50087e-06
 Reference value :  6.50145e-06
 Reference value :  6.50221e-06
 Reference value :  6.50288e-06
 Reference value :  6.50355e-06
 Reference value :  6.50426e-06
 Reference value :  6.50523e-06
 Reference value :  6.50618e-06
 Reference value :  6.50715e-06
 Reference value :  6.50858e-06
 Reference value :  6.50996e-06
 Reference value :  6.51125e-06
 Reference value :  6.51265e-06
 Reference value :  6.51393e-06
 Reference value :  6.51543e-06
 Reference value :  6.51694e-06
 Reference value :  6.51866e-06
 Reference value :  6.52209e-06
 Reference value :  6.52895e-06
 Reference value :  6.54046e-06
 Reference value :  6.56349e-06
 Reference value :  6.60654e-06
 Reference value :  6.68680e-06
 Reference value :  6.75010e-06
 Reference value :  6.75011e-06
 Reference value :  6.75013e-06
 Reference value :  6.75017e-06
 Reference value :  6.75020e-06
 Reference value :  6.75020e-06
 Reference value :  6.75020e-06
 Reference value :  6.75021e-06
 Reference value :  6.75021e-06
 Reference value :  6.75022e-06
 Reference value :  6.75025e-06
 Reference value :  6.75030e-06
 Reference value :  6.75039e-06
 Reference value :  6.75059e-06
 Reference value :  6.75094e-06
 Reference value :  6.75136e-06
 Reference value :  6.75188e-06
 Reference value :  6.75249e-06
 Reference value :  6.75326e-06
 Reference value :  6.75413e-06
 Reference value :  6.75531e-06
 Reference value :  6.75623e-06
 Reference value :  6.75719e-06
 Reference value :  6.75822e-06
 Reference value :  6.75933e-06
 Reference value :  6.76055e-06
 Reference value :  6.76299e-06
 Reference value :  6.76566e-06
 Reference value :  6.77031e-06
 Reference value :  6.77878e-06
 Reference value :  6.79570e-06
 Reference value :  6.82879e-06
 Reference value :  6.89454e-06
 Reference value :  7.00000e-06
 Reference value :  7.00001e-06
 Reference value :  7.00003e-06
 Reference value :  7.00007e-06
 Reference value :  7.00010e-06
 Reference value :  7.00010e-06
 Reference value :  7.00011e-06
 Reference value :  7.00013e-06
 Reference value :  7.00016e-06
 Reference value :  7.00023e-06
 Reference value :  7.00036e-06
 Reference value :  7.00053e-06
 Reference value :  7.00087e-06
 Reference value :  7.00145e-06
 Reference value :  7.00221e-06
 Reference value :  7.00288e-06
 Reference value :  7.00356e-06
 Reference value :  7.00427e-06
 Reference value :  7.00525e-06
 Reference value :  7.00603e-06
 Reference value :  7.00685e-06
 Reference value :  7.00784e-06
 Reference value :  7.00870e-06
 Reference value :  7.00964e-06
 Reference value :  7.01062e-06
 Reference value :  7.01183e-06
 Reference value :  7.01358e-06
 Reference value :  7.01607e-06
 Reference value :  7.01835e-06
 Reference value :  7.02069e-06
 Reference value :  7.02243e-06
 Reference value :  7.02407e-06
 Reference value :  7.02577e-06
 Reference value :  7.02754e-06
 Reference value :  7.02950e-06
 Reference value :  7.03173e-06
 Reference value :  7.03417e-06
 Reference value :  7.03775e-06
 Reference value :  7.04397e-06
 Reference value :  7.04965e-06
 Reference value :  7.05655e-06
 Reference value :  7.06694e-06
 Reference value :  7.07859e-06
 Reference value :  7.09343e-06
 Reference value :  7.10527e-06
 Reference value :  7.11849e-06
 Reference value :  7.14299e-06
 Reference value :  7.16071e-06
 Reference value :  7.17756e-06
 Reference value :  7.20327e-06
 Reference value :  7.22708e-06
 Reference value :  7.24995e-06
 Reference value :  7.25010e-06
 Reference value :  7.25011e-06
 Reference value :  7.25013e-06
 Reference value :  7.25017e-06
 Reference value :  7.25020e-06
 Reference value :  7.25020e-06
 Reference value :  7.25020e-06
 Reference value :  7.25021e-06
 Reference value :  7.25021e-06
 Reference value :  7.25022e-06
 Reference value :  7.25025e-06
 Reference value :  7.25029e-06
 Reference value :  7.25039e-06
 Reference value :  7.25058e-06
 Reference value :  7.25092e-06
 Reference value :  7.25135e-06
 Reference value :  7.25187e-06
 Reference value :  7.25248e-06
 Reference value :  7.25324e-06
 Reference value :  7.25412e-06
 Reference value :  7.25530e-06
 Reference value :  7.25621e-06
 Reference value :  7.25718e-06
 Reference value :  7.25826e-06
 Reference value :  7.25981e-06
 Reference value :  7.26130e-06
 Reference value :  7.26379e-06
 Reference value :  7.26681e-06
 Reference value :  7.27232e-06
 Reference value :  7.28332e-06
 Reference value :  7.30235e-06
 Reference value :  7.34041e-06
 Reference value :  7.41093e-06
 Reference value :  7.50000e-06
 Reference value :  7.50001e-06
 Reference value :  7.50003e-06
 Reference value :  7.50007e-06
 Reference value :  7.50010e-06
 Reference value :  7.50010e-06
 Reference value :  7.50011e-06
 Reference value :  7.50013e-06
 Reference value :  7.50016e-06
 Reference value :  7.50023e-06
 Reference value :  7.50036e-06
 Reference value :  7.50053e-06
 Reference value :  7.50087e-06
 Reference value :  7.50150e-06
 Reference value :  7.50218e-06
 Reference value :  7.50280e-06
 Reference value :  7.50345e-06
 Reference value :  7.50413e-06
 Reference value :  7.50511e-06
 Reference value :  7.50600e-06
 Reference value :  7.50701e-06
 Reference value :  7.50825e-06
 Reference value :  7.50971e-06
 Reference value :  7.51113e-06
 Reference value :  7.51266e-06
 Reference value :  7.51421e-06
 Reference value :  7.51595e-06
 Reference value :  7.51797e-06
 Reference value :  7.51984e-06
 Reference value :  7.52360e-06
 Reference value :  7.53027e-06
 Reference value :  7.54063e-06
 Reference value :  7.56136e-06
 Reference value :  7.59956e-06
 Reference value :  7.66896e-06
 Reference value :  7.75010e-06
 Reference value :  7.75011e-06
 Reference value :  7.75013e-06
 Reference value :  7.75017e-06
 Reference value :  7.75020e-06
 Reference value :  7.75020e-06
 Reference value :  7.75020e-06
 Reference value :  7.75021e-06
 Reference value :  7.75021e-06
 Reference value :  7.75022e-06
 Reference value :  7.75025e-06
 Reference value :  7.75030e-06
 Reference value :  7.75039e-06
 Reference value :  7.75059e-06
 Reference value :  7.75094e-06
 Reference value :  7.75136e-06
 Reference value :  7.75188e-06
 Reference value :  7.75249e-06
 Reference value :  7.75326e-06
 Reference value :  7.75414e-06
 Reference value :  7.75531e-06
 Reference value :  7.75626e-06
 Reference value :  7.75725e-06
 Reference value :  7.75827e-06
 Reference value :  7.75939e-06
 Reference value :  7.76063e-06
 Reference value :  7.76303e-06
 Reference value :  7.76583e-06
 Reference value :  7.77060e-06
 Reference value :  7.77963e-06
 Reference value :  7.79771e-06
 Reference value :  7.83085e-06
 Reference value :  7.89687e-06
 Reference value :  8.00000e-06
 Reference value :  8.00001e-06
 Reference value :  8.00003e-06
 Reference value :  8.00007e-06
 Reference value :  8.00010e-06
 Reference value :  8.00010e-06
 Reference value :  8.00011e-06
 Reference value :  8.00013e-06
 Reference value :  8.00016e-06
 Reference value :  8.00023e-06
 Reference value :  8.00036e-06
 Reference value :  8.00053e-06
 Reference value :  8.00087e-06
 Reference value :  8.00150e-06
 Reference value :  8.00218e-06
 Reference value :  8.00280e-06
 Reference value :  8.00345e-06
 Reference value :  8.00414e-06
 Reference value :  8.00499e-06
 Reference value :  8.00588e-06
 Reference value :  8.00669e-06
 Reference value :  8.00773e-06
 Reference value :  8.00871e-06
 Reference value :  8.00974e-06
 Reference value :  8.01072e-06
 Reference value :  8.01204e-06
 Reference value :  8.01371e-06
 Reference value :  8.01602e-06
 Reference value :  8.01872e-06
 Reference value :  8.02109e-06
 Reference value :  8.02353e-06
 Reference value :  8.02726e-06
 Reference value :  8.03094e-06
 Reference value :  8.03735e-06
 Reference value :  8.04599e-06
 Reference value :  8.05943e-06
 Reference value :  8.08150e-06
 Reference value :  8.11890e-06
 Reference value :  8.18085e-06
 Reference value :  8.25010e-06
 Reference value :  8.25011e-06
 Reference value :  8.25013e-06
 Reference value :  8.25017e-06
 Reference value :  8.25020e-06
 Reference value :  8.25020e-06
 Reference value :  8.25020e-06
 Reference value :  8.25021e-06
 Reference value :  8.25021e-06
 Reference value :  8.25022e-06
 Reference value :  8.25025e-06
 Reference value :  8.25030e-06
 Reference value :  8.25039e-06
 Reference value :  8.25059e-06
 Reference value :  8.25098e-06
 Reference value :  8.25139e-06
 Reference value :  8.25189e-06
 Reference value :  8.25250e-06
 Reference value :  8.25330e-06
 Reference value :  8.25418e-06
 Reference value :  8.25526e-06
 Reference value :  8.25645e-06
 Reference value :  8.25784e-06
 Reference value :  8.25942e-06
 Reference value :  8.26126e-06
 Reference value :  8.26401e-06
 Reference value :  8.26675e-06
 Reference value :  8.27191e-06
 Reference value :  8.28224e-06
 Reference value :  8.29902e-06
 Reference value :  8.33246e-06
 Reference value :  8.39197e-06
 Reference value :  8.50000e-06
 Reference value :  8.50000e-06
 Reference value :  8.50000e-06
 Reference value :  8.50000e-06
 Reference value :  8.50000e-06
 Reference value :  8.50000e-06
 Reference value :  8.50000e-06
 Reference value :  8.50000e-06
 Reference value :  8.50000e-06
 Reference value :  8.50001e-06
 Reference value :  8.50001e-06
 Reference value :  8.50002e-06
 Reference value :  8.50004e-06
 Reference value :  8.50008e-06
 Reference value :  8.50010e-06
 Reference value :  8.50010e-06
 Reference value :  8.50011e-06
 Reference value :  8.50012e-06
 Reference value :  8.50014e-06
 Reference value :  8.50018e-06
 Reference value :  8.50026e-06
 Reference value :  8.50043e-06
 Reference value :  8.50077e-06
 Reference value :  8.50124e-06
 Reference value :  8.50211e-06
 Reference value :  8.50295e-06
 Reference value :  8.50360e-06
 Reference value :  8.50441e-06
 Reference value :  8.50523e-06
 Reference value :  8.50622e-06
 Reference value :  8.50737e-06
 Reference value :  8.50865e-06
 Reference value :  8.51072e-06
 Reference value :  8.51234e-06
 Reference value :  8.51406e-06
 Reference value :  8.51588e-06
 Reference value :  8.51780e-06
 Reference value :  8.52005e-06
 Reference value :  8.52272e-06
 Reference value :  8.52806e-06
 Reference value :  8.53297e-06
 Reference value :  8.53361e-06
 Reference value :  8.53489e-06
 Reference value :  8.53634e-06
 Reference value :  8.53798e-06
 Reference value :  8.53969e-06
 Reference value :  8.54116e-06
 Reference value :  8.54277e-06
 Reference value :  8.54478e-06
 Reference value :  8.54629e-06
 Reference value :  8.54790e-06
 Reference value :  8.54946e-06
 Reference value :  8.55132e-06
 Reference value :  8.55322e-06
 Reference value :  8.55512e-06
 Reference value :  8.55767e-06
 Reference value :  8.56075e-06
 Reference value :  8.56520e-06
 Reference value :  8.57047e-06
 Reference value :  8.57855e-06
 Reference value :  8.58731e-06
 Reference value :  8.60035e-06
 Reference value :  8.61437e-06
 Reference value :  8.63572e-06
 Reference value :  8.66430e-06
 Reference value :  8.70486e-06
 Reference value :  8.75010e-06
 Reference value :  8.75011e-06
 Reference value :  8.75013e-06
 Reference value :  8.75017e-06
 Reference value :  8.75020e-06
 Reference value :  8.75020e-06
 Reference value :  8.75020e-06
 Reference value :  8.75021e-06
 Reference value :  8.75021e-06
 Reference value :  8.75022e-06
 Reference value :  8.75025e-06
 Reference value :  8.75030e-06
 Reference value :  8.75039e-06
 Reference value :  8.75059e-06
 Reference value :  8.75097e-06
 Reference value :  8.75138e-06
 Reference value :  8.75191e-06
 Reference value :  8.75252e-06
 Reference value :  8.75331e-06
 Reference value :  8.75420e-06
 Reference value :  8.75540e-06
 Reference value :  8.75638e-06
 Reference value :  8.75739e-06
 Reference value :  8.75849e-06
 Reference value :  8.76006e-06
 Reference value :  8.76170e-06
 Reference value :  8.76407e-06
 Reference value :  8.76753e-06
 Reference value :  8.77380e-06
 Reference value :  8.78600e-06
 Reference value :  8.80635e-06
 Reference value :  8.84634e-06
 Reference value :  8.91756e-06
 Reference value :  8.98935e-06
 Reference value :  9.00000e-06
 Reference value :  9.00001e-06
 Reference value :  9.00003e-06
 Reference value :  9.00007e-06
 Reference value :  9.00010e-06
 Reference value :  9.00010e-06
 Reference value :  9.00011e-06
 Reference value :  9.00013e-06
 Reference value :  9.00016e-06
 Reference value :  9.00023e-06
 Reference value :  9.00036e-06
 Reference value :  9.00054e-06
 Reference value :  9.00089e-06
 Reference value :  9.00151e-06
 Reference value :  9.00219e-06
 Reference value :  9.00282e-06
 Reference value :  9.00350e-06
 Reference value :  9.00421e-06
 Reference value :  9.00519e-06
 Reference value :  9.00613e-06
 Reference value :  9.00711e-06
 Reference value :  9.00846e-06
 Reference value :  9.00985e-06
 Reference value :  9.01176e-06
 Reference value :  9.01407e-06
 Reference value :  9.01592e-06
 Reference value :  9.01789e-06
 Reference value :  9.01994e-06
 Reference value :  9.02224e-06
 Reference value :  9.02482e-06
 Reference value :  9.02753e-06
 Reference value :  9.03251e-06
 Reference value :  9.04104e-06
 Reference value :  9.05060e-06
 Reference value :  9.06972e-06
 Reference value :  9.10797e-06
 Reference value :  9.17173e-06
 Reference value :  9.25010e-06
 Reference value :  9.25011e-06
 Reference value :  9.25013e-06
 Reference value :  9.25017e-06
 Reference value :  9.25020e-06
 Reference value :  9.25020e-06
 Reference value :  9.25020e-06
 Reference value :  9.25021e-06
 Reference value :  9.25021e-06
 Reference value :  9.25022e-06
 Reference value :  9.25025e-06
 Reference value :  9.25030e-06
 Reference value :  9.25039e-06
 Reference value :  9.25059e-06
 Reference value :  9.25098e-06
 Reference value :  9.25139e-06
 Reference value :  9.25191e-06
 Reference value :  9.25252e-06
 Reference value :  9.25332e-06
 Reference value :  9.25422e-06
 Reference value :  9.25541e-06
 Reference value :  9.25650e-06
 Reference value :  9.25751e-06
 Reference value :  9.25859e-06
 Reference value :  9.25983e-06
 Reference value :  9.26116e-06
 Reference value :  9.26359e-06
 Reference value :  9.26677e-06
 Reference value :  9.27237e-06
 Reference value :  9.28356e-06
 Reference value :  9.30272e-06
 Reference value :  9.34005e-06
 Reference value :  9.40841e-06
 Reference value :  9.50000e-06
 Reference value :  9.50001e-06
 Reference value :  9.50003e-06
 Reference value :  9.50007e-06
 Reference value :  9.50010e-06
 Reference value :  9.50010e-06
 Reference value :  9.50011e-06
 Reference value :  9.50013e-06
 Reference value :  9.50016e-06
 Reference value :  9.50023e-06
 Reference value :  9.50036e-06
 Reference value :  9.50054e-06
 Reference value :  9.50089e-06
 Reference value :  9.50151e-06
 Reference value :  9.50220e-06
 Reference value :  9.50282e-06
 Reference value :  9.50346e-06
 Reference value :  9.50415e-06
 Reference value :  9.50499e-06
 Reference value :  9.50587e-06
 Reference value :  9.50671e-06
 Reference value :  9.50777e-06
 Reference value :  9.50887e-06
 Reference value :  9.50996e-06
 Reference value :  9.51099e-06
 Reference value :  9.51243e-06
 Reference value :  9.51411e-06
 Reference value :  9.51683e-06
 Reference value :  9.51884e-06
 Reference value :  9.52100e-06
 Reference value :  9.52260e-06
 Reference value :  9.52413e-06
 Reference value :  9.52558e-06
 Reference value :  9.52714e-06
 Reference value :  9.52886e-06
 Reference value :  9.53112e-06
 Reference value :  9.53348e-06
 Reference value :  9.53810e-06
 Reference value :  9.54450e-06
 Reference value :  9.55565e-06
 Reference value :  9.57379e-06
 Reference value :  9.59955e-06
 Reference value :  9.63905e-06
 Reference value :  9.71676e-06
 Reference value :  9.75010e-06
 Reference value :  9.75011e-06
 Reference value :  9.75013e-06
 Reference value :  9.75017e-06
 Reference value :  9.75020e-06
 Reference value :  9.75020e-06
 Reference value :  9.75020e-06
 Reference value :  9.75021e-06
 Reference value :  9.75021e-06
 Reference value :  9.75022e-06
 Reference value :  9.75025e-06
 Reference value :  9.75029e-06
 Reference value :  9.75039e-06
 Reference value :  9.75058e-06
 Reference value :  9.75092e-06
 Reference value :  9.75135e-06
 Reference value :  9.75187e-06
 Reference value :  9.75248e-06
 Reference value :  9.75324e-06
 Reference value :  9.75412e-06
 Reference value :  9.75531e-06
 Reference value :  9.75621e-06
 Reference value :  9.75717e-06
 Reference value :  9.75825e-06
 Reference value :  9.75981e-06
 Reference value :  9.76128e-06
 Reference value :  9.76378e-06
 Reference value :  9.76678e-06
 Reference value :  9.77228e-06
 Reference value :  9.78329e-06
 Reference value :  9.80232e-06
 Reference value :  9.84039e-06
 Reference value :  9.91113e-06
 Reference value :  1.00000e-05
 Reference value :  1.00000e-05
 Reference value :  1.00000e-05
 Reference value :  1.00001e-05
 Reference value :  1.00001e-05
 Reference value :  1.00001e-05
 Reference value :  1.00001e-05
 Reference value :  1.00001e-05
 Reference value :  1.00002e-05
 Reference value :  1.00002e-05
 Reference value :  1.00004e-05
 Reference value :  1.00005e-05
 Reference value :  1.00009e-05
 Reference value :  1.00014e-05
 Reference value :  1.00022e-05
 Reference value :  1.00029e-05
 Reference value :  1.00036e-05
 Reference value :  1.00043e-05
 Reference value :  1.00052e-05
 Reference value :  1.00062e-05
 Reference value :  1.00072e-05
 Reference value :  1.00086e-05
 Reference value :  1.00100e-05
 Reference value :  1.00113e-05
 Reference value :  1.00127e-05
 Reference value :  1.00142e-05
 Reference value :  1.00159e-05
 Reference value :  1.00174e-05
 Reference value :  1.00195e-05
 Reference value :  1.00216e-05
 Reference value :  1.00254e-05
 Reference value :  1.00312e-05
 Reference value :  1.00411e-05
 Reference value :  1.00595e-05
 Reference value :  1.00919e-05
 Reference value :  1.01532e-05
 Reference value :  1.02501e-05
 Reference value :  1.02501e-05
 Reference value :  1.02501e-05
 Reference value :  1.02502e-05
 Reference value :  1.02502e-05
 Reference value :  1.02502e-05
 Reference value :  1.02502e-05
 Reference value :  1.02502e-05
 Reference value :  1.02502e-05
 Reference value :  1.02502e-05
 Reference value :  1.02502e-05
 Reference value :  1.02503e-05
 Reference value :  1.02504e-05
 Reference value :  1.02506e-05
 Reference value :  1.02509e-05
 Reference value :  1.02513e-05
 Reference value :  1.02519e-05
 Reference value :  1.02525e-05
 Reference value :  1.02532e-05
 Reference value :  1.02541e-05
 Reference value :  1.02553e-05
 Reference value :  1.02562e-05
 Reference value :  1.02571e-05
 Reference value :  1.02582e-05
 Reference value :  1.02593e-05
 Reference value :  1.02605e-05
 Reference value :  1.02630e-05
 Reference value :  1.02656e-05
 Reference value :  1.02702e-05
 Reference value :  1.02785e-05
 Reference value :  1.02951e-05
 Reference value :  1.03284e-05
 Reference value :  1.03930e-05
 Reference value :  1.05000e-05
 Reference value :  1.05000e-05
 Reference value :  1.05000e-05
 Reference value :  1.05001e-05
 Reference value :  1.05001e-05
 Reference value :  1.05001e-05
 Reference value :  1.05001e-05
 Reference value :  1.05001e-05
 Reference value :  1.05002e-05
 Reference value :  1.05002e-05
 Reference value :  1.05004e-05
 Reference value :  1.05005e-05
 Reference value :  1.05009e-05
 Reference value :  1.05014e-05
 Reference value :  1.05022e-05
 Reference value :  1.05029e-05
 Reference value :  1.05036e-05
 Reference value :  1.05043e-05
 Reference value :  1.05053e-05
 Reference value :  1.05060e-05
 Reference value :  1.05069e-05
 Reference value :  1.05078e-05
 Reference value :  1.05089e-05
 Reference value :  1.05099e-05
 Reference value :  1.05110e-05
 Reference value :  1.05124e-05
 Reference value :  1.05140e-05
 Reference value :  1.05163e-05
 Reference value :  1.05185e-05
 Reference value :  1.05205e-05
 Reference value :  1.05221e-05
 Reference value :  1.05237e-05
 Reference value :  1.05253e-05
 Reference value :  1.05270e-05
 Reference value :  1.05289e-05
 Reference value :  1.05308e-05
 Reference value :  1.05335e-05
 Reference value :  1.05379e-05
 Reference value :  1.05432e-05
 Reference value :  1.05486e-05
 Reference value :  1.05572e-05
 Reference value :  1.05651e-05
 Reference value :  1.05710e-05
 Reference value :  1.05760e-05
 Reference value :  1.05812e-05
 Reference value :  1.05881e-05
 Reference value :  1.05953e-05
 Reference value :  1.06024e-05
 Reference value :  1.06107e-05
 Reference value :  1.06245e-05
 Reference value :  1.06405e-05
 Reference value :  1.06652e-05
 Reference value :  1.07015e-05
 Reference value :  1.07501e-05
 Reference value :  1.07501e-05
 Reference value :  1.07501e-05
 Reference value :  1.07502e-05
 Reference value :  1.07502e-05
 Reference value :  1.07502e-05
 Reference value :  1.07502e-05
 Reference value :  1.07502e-05
 Reference value :  1.07502e-05
 Reference value :  1.07502e-05
 Reference value :  1.07502e-05
 Reference value :  1.07503e-05
 Reference value :  1.07504e-05
 Reference value :  1.07506e-05
 Reference value :  1.07509e-05
 Reference value :  1.07514e-05
 Reference value :  1.07519e-05
 Reference value :  1.07525e-05
 Reference value :  1.07533e-05
 Reference value :  1.07541e-05
 Reference value :  1.07553e-05
 Reference value :  1.07562e-05
 Reference value :  1.07572e-05
 Reference value :  1.07583e-05
 Reference value :  1.07598e-05
 Reference value :  1.07615e-05
 Reference value :  1.07639e-05
 Reference value :  1.07671e-05
 Reference value :  1.07725e-05
 Reference value :  1.07834e-05
 Reference value :  1.08023e-05
 Reference value :  1.08392e-05
 Reference value :  1.09108e-05
 Reference value :  1.10000e-05
 Reference value :  1.10000e-05
 Reference value :  1.10000e-05
 Reference value :  1.10001e-05
 Reference value :  1.10001e-05
 Reference value :  1.10001e-05
 Reference value :  1.10001e-05
 Reference value :  1.10001e-05
 Reference value :  1.10002e-05
 Reference value :  1.10002e-05
 Reference value :  1.10004e-05
 Reference value :  1.10005e-05
 Reference value :  1.10009e-05
 Reference value :  1.10014e-05
 Reference value :  1.10022e-05
 Reference value :  1.10028e-05
 Reference value :  1.10035e-05
 Reference value :  1.10042e-05
 Reference value :  1.10051e-05
 Reference value :  1.10061e-05
 Reference value :  1.10071e-05
 Reference value :  1.10085e-05
 Reference value :  1.10099e-05
 Reference value :  1.10113e-05
 Reference value :  1.10128e-05
 Reference value :  1.10146e-05
 Reference value :  1.10163e-05
 Reference value :  1.10182e-05
 Reference value :  1.10204e-05
 Reference value :  1.10242e-05
 Reference value :  1.10302e-05
 Reference value :  1.10410e-05
 Reference value :  1.10620e-05
 Reference value :  1.11002e-05
 Reference value :  1.11765e-05
 Reference value :  1.12501e-05
 Reference value :  1.12501e-05
 Reference value :  1.12501e-05
 Reference value :  1.12502e-05
 Reference value :  1.12502e-05
 Reference value :  1.12502e-05
 Reference value :  1.12502e-05
 Reference value :  1.12502e-05
 Reference value :  1.12502e-05
 Reference value :  1.12502e-05
 Reference value :  1.12502e-05
 Reference value :  1.12503e-05
 Reference value :  1.12504e-05
 Reference value :  1.12506e-05
 Reference value :  1.12509e-05
 Reference value :  1.12514e-05
 Reference value :  1.12519e-05
 Reference value :  1.12525e-05
 Reference value :  1.12533e-05
 Reference value :  1.12541e-05
 Reference value :  1.12553e-05
 Reference value :  1.12562e-05
 Reference value :  1.12572e-05
 Reference value :  1.12582e-05
 Reference value :  1.12593e-05
 Reference value :  1.12606e-05
 Reference value :  1.12618e-05
 Reference value :  1.12632e-05
 Reference value :  1.12654e-05
 Reference value :  1.12677e-05
 Reference value :  1.12713e-05
 Reference value :  1.12770e-05
 Reference value :  1.12883e-05
 Reference value :  1.13110e-05
 Reference value :  1.13563e-05
 Reference value :  1.14469e-05
 Reference value :  1.15000e-05
 Reference value :  1.15000e-05
 Reference value :  1.15000e-05
 Reference value :  1.15001e-05
 Reference value :  1.15001e-05
 Reference value :  1.15001e-05
 Reference value :  1.15001e-05
 Reference value :  1.15001e-05
 Reference value :  1.15002e-05
 Reference value :  1.15002e-05
 Reference value :  1.15004e-05
 Reference value :  1.15005e-05
 Reference value :  1.15009e-05
 Reference value :  1.15014e-05
 Reference value :  1.15022e-05
 Reference value :  1.15029e-05
 Reference value :  1.15036e-05
 Reference value :  1.15043e-05
 Reference value :  1.15051e-05
 Reference value :  1.15059e-05
 Reference value :  1.15067e-05
 Reference value :  1.15078e-05
 Reference value :  1.15088e-05
 Reference value :  1.15097e-05
 Reference value :  1.15108e-05
 Reference value :  1.15121e-05
 Reference value :  1.15137e-05
 Reference value :  1.15152e-05
 Reference value :  1.15169e-05
 Reference value :  1.15185e-05
 Reference value :  1.15202e-05
 Reference value :  1.15215e-05
 Reference value :  1.15227e-05
 Reference value :  1.15241e-05
 Reference value :  1.15256e-05
 Reference value :  1.15269e-05
 Reference value :  1.15286e-05
 Reference value :  1.15308e-05
 Reference value :  1.15331e-05
 Reference value :  1.15374e-05
 Reference value :  1.15438e-05
 Reference value :  1.15546e-05
 Reference value :  1.15650e-05
 Reference value :  1.15751e-05
 Reference value :  1.15833e-05
 Reference value :  1.15868e-05
 Reference value :  1.15901e-05
 Reference value :  1.15937e-05
 Reference value :  1.15993e-05
 Reference value :  1.16062e-05
 Reference value :  1.16162e-05
 Reference value :  1.16320e-05
 Reference value :  1.16547e-05
 Reference value :  1.16846e-05
 Reference value :  1.17168e-05
 Reference value :  1.17501e-05
 Reference value :  1.17501e-05
 Reference value :  1.17501e-05
 Reference value :  1.17502e-05
 Reference value :  1.17502e-05
 Reference value :  1.17502e-05
 Reference value :  1.17502e-05
 Reference value :  1.17502e-05
 Reference value :  1.17502e-05
 Reference value :  1.17502e-05
 Reference value :  1.17502e-05
 Reference value :  1.17503e-05
 Reference value :  1.17504e-05
 Reference value :  1.17506e-05
 Reference value :  1.17509e-05
 Reference value :  1.17514e-05
 Reference value :  1.17519e-05
 Reference value :  1.17525e-05
 Reference value :  1.17533e-05
 Reference value :  1.17541e-05
 Reference value :  1.17553e-05
 Reference value :  1.17562e-05
 Reference value :  1.17572e-05
 Reference value :  1.17583e-05
 Reference value :  1.17598e-05
 Reference value :  1.17613e-05
 Reference value :  1.17638e-05
 Reference value :  1.17668e-05
 Reference value :  1.17723e-05
 Reference value :  1.17834e-05
 Reference value :  1.18023e-05
 Reference value :  1.18402e-05
 Reference value :  1.19103e-05
 Reference value :  1.20000e-05
 Reference value :  1.20000e-05
 Reference value :  1.20000e-05
 Reference value :  1.20001e-05
 Reference value :  1.20001e-05
 Reference value :  1.20001e-05
 Reference value :  1.20001e-05
 Reference value :  1.20001e-05
 Reference value :  1.20002e-05
 Reference value :  1.20002e-05
 Reference value :  1.20004e-05
 Reference value :  1.20005e-05
 Reference value :  1.20009e-05
 Reference value :  1.20014e-05
 Reference value :  1.20022e-05
 Reference value :  1.20029e-05
 Reference value :  1.20036e-05
 Reference value :  1.20043e-05
 Reference value :  1.20052e-05
 Reference value :  1.20062e-05
 Reference value :  1.20072e-05
 Reference value :  1.20086e-05
 Reference value :  1.20100e-05
 Reference value :  1.20113e-05
 Reference value :  1.20126e-05
 Reference value :  1.20142e-05
 Reference value :  1.20158e-05
 Reference value :  1.20176e-05
 Reference value :  1.20196e-05
 Reference value :  1.20235e-05
 Reference value :  1.20294e-05
 Reference value :  1.20414e-05
 Reference value :  1.20638e-05
 Reference value :  1.21043e-05
 Reference value :  1.21837e-05
 Reference value :  1.22501e-05
 Reference value :  1.22501e-05
 Reference value :  1.22501e-05
 Reference value :  1.22502e-05
 Reference value :  1.22502e-05
 Reference value :  1.22502e-05
 Reference value :  1.22502e-05
 Reference value :  1.22502e-05
 Reference value :  1.22502e-05
 Reference value :  1.22502e-05
 Reference value :  1.22502e-05
 Reference value :  1.22503e-05
 Reference value :  1.22504e-05
 Reference value :  1.22506e-05
 Reference value :  1.22509e-05
 Reference value :  1.22514e-05
 Reference value :  1.22519e-05
 Reference value :  1.22525e-05
 Reference value :  1.22533e-05
 Reference value :  1.22541e-05
 Reference value :  1.22553e-05
 Reference value :  1.22562e-05
 Reference value :  1.22572e-05
 Reference value :  1.22582e-05
 Reference value :  1.22593e-05
 Reference value :  1.22605e-05
 Reference value :  1.22630e-05
 Reference value :  1.22656e-05
 Reference value :  1.22703e-05
 Reference value :  1.22787e-05
 Reference value :  1.22955e-05
 Reference value :  1.23285e-05
 Reference value :  1.23945e-05
 Reference value :  1.24543e-05
 Reference value :  1.25000e-05
 Reference value :  1.25000e-05
 Reference value :  1.25000e-05
 Reference value :  1.25001e-05
 Reference value :  1.25001e-05
 Reference value :  1.25001e-05
 Reference value :  1.25001e-05
 Reference value :  1.25001e-05
 Reference value :  1.25002e-05
 Reference value :  1.25002e-05
 Reference value :  1.25004e-05
 Reference value :  1.25005e-05
 Reference value :  1.25009e-05
 Reference value :  1.25014e-05
 Reference value :  1.25022e-05
 Reference value :  1.25029e-05
 Reference value :  1.25036e-05
 Reference value :  1.25043e-05
 Reference value :  1.25053e-05
 Reference value :  1.25060e-05
 Reference value :  1.25068e-05
 Reference value :  1.25078e-05
 Reference value :  1.25089e-05
 Reference value :  1.25099e-05
 Reference value :  1.25109e-05
 Reference value :  1.25123e-05
 Reference value :  1.25140e-05
 Reference value :  1.25152e-05
 Reference value :  1.25166e-05
 Reference value :  1.25179e-05
 Reference value :  1.25195e-05
 Reference value :  1.25208e-05
 Reference value :  1.25219e-05
 Reference value :  1.25230e-05
 Reference value :  1.25243e-05
 Reference value :  1.25257e-05
 Reference value :  1.25271e-05
 Reference value :  1.25286e-05
 Reference value :  1.25308e-05
 Reference value :  1.25330e-05
 Reference value :  1.25374e-05
 Reference value :  1.25437e-05
 Reference value :  1.25539e-05
 Reference value :  1.25714e-05
 Reference value :  1.25944e-05
 Reference value :  1.26150e-05
 Reference value :  1.26380e-05
 Reference value :  1.26604e-05
 Reference value :  1.26935e-05
 Reference value :  1.27351e-05
 Reference value :  1.27501e-05
 Reference value :  1.27501e-05
 Reference value :  1.27501e-05
 Reference value :  1.27502e-05
 Reference value :  1.27502e-05
 Reference value :  1.27502e-05
 Reference value :  1.27502e-05
 Reference value :  1.27502e-05
 Reference value :  1.27502e-05
 Reference value :  1.27502e-05
 Reference value :  1.27502e-05
 Reference value :  1.27503e-05
 Reference value :  1.27504e-05
 Reference value :  1.27506e-05
 Reference value :  1.27509e-05
 Reference value :  1.27513e-05
 Reference value :  1.27519e-05
 Reference value :  1.27525e-05
 Reference value :  1.27532e-05
 Reference value :  1.27541e-05
 Reference value :  1.27553e-05
 Reference value :  1.27562e-05
 Reference value :  1.27571e-05
 Reference value :  1.27582e-05
 Reference value :  1.27596e-05
 Reference value :  1.27610e-05
 Reference value :  1.27635e-05
 Reference value :  1.27663e-05
 Reference value :  1.27713e-05
 Reference value :  1.27812e-05
 Reference value :  1.27997e-05
 Reference value :  1.28355e-05
 Reference value :  1.29062e-05
 Reference value :  1.30000e-05
 Reference value :  1.30000e-05
 Reference value :  1.30000e-05
 Reference value :  1.30001e-05
 Reference value :  1.30001e-05
 Reference value :  1.30001e-05
 Reference value :  1.30001e-05
 Reference value :  1.30001e-05
 Reference value :  1.30002e-05
 Reference value :  1.30002e-05
 Reference value :  1.30004e-05
 Reference value :  1.30005e-05
 Reference value :  1.30009e-05
 Reference value :  1.30014e-05
 Reference value :  1.30022e-05
 Reference value :  1.30029e-05
 Reference value :  1.30036e-05
 Reference value :  1.30043e-05
 Reference value :  1.30052e-05
 Reference value :  1.30062e-05
 Reference value :  1.30071e-05
 Reference value :  1.30086e-05
 Reference value :  1.30100e-05
 Reference value :  1.30112e-05
 Reference value :  1.30125e-05
 Reference value :  1.30138e-05
 Reference value :  1.30153e-05
 Reference value :  1.30170e-05
 Reference value :  1.30187e-05
 Reference value :  1.30222e-05
 Reference value :  1.30291e-05
 Reference value :  1.30409e-05
 Reference value :  1.30645e-05
 Reference value :  1.31088e-05
 Reference value :  1.31917e-05
 Reference value :  1.32501e-05
 Reference value :  1.32501e-05
 Reference value :  1.32501e-05
 Reference value :  1.32502e-05
 Reference value :  1.32502e-05
 Reference value :  1.32502e-05
 Reference value :  1.32502e-05
 Reference value :  1.32502e-05
 Reference value :  1.32502e-05
 Reference value :  1.32502e-05
 Reference value :  1.32502e-05
 Reference value :  1.32503e-05
 Reference value :  1.32504e-05
 Reference value :  1.32506e-05
 Reference value :  1.32509e-05
 Reference value :  1.32514e-05
 Reference value :  1.32519e-05
 Reference value :  1.32525e-05
 Reference value :  1.32533e-05
 Reference value :  1.32541e-05
 Reference value :  1.32553e-05
 Reference value :  1.32562e-05
 Reference value :  1.32572e-05
 Reference value :  1.32582e-05
 Reference value :  1.32593e-05
 Reference value :  1.32606e-05
 Reference value :  1.32630e-05
 Reference value :  1.32657e-05
 Reference value :  1.32703e-05
 Reference value :  1.32789e-05
 Reference value :  1.32960e-05
 Reference value :  1.33292e-05
 Reference value :  1.33953e-05
 Reference value :  1.35000e-05
 Reference value :  1.35000e-05
 Reference value :  1.35000e-05
 Reference value :  1.35001e-05
 Reference value :  1.35001e-05
 Reference value :  1.35001e-05
 Reference value :  1.35001e-05
 Reference value :  1.35001e-05
 Reference value :  1.35002e-05
 Reference value :  1.35002e-05
 Reference value :  1.35004e-05
 Reference value :  1.35005e-05
 Reference value :  1.35009e-05
 Reference value :  1.35014e-05
 Reference value :  1.35022e-05
 Reference value :  1.35029e-05
 Reference value :  1.35036e-05
 Reference value :  1.35043e-05
 Reference value :  1.35053e-05
 Reference value :  1.35060e-05
 Reference value :  1.35069e-05
 Reference value :  1.35079e-05
 Reference value :  1.35087e-05
 Reference value :  1.35097e-05
 Reference value :  1.35107e-05
 Reference value :  1.35119e-05
 Reference value :  1.35136e-05
 Reference value :  1.35158e-05
 Reference value :  1.35181e-05
 Reference value :  1.35204e-05
 Reference value :  1.35221e-05
 Reference value :  1.35236e-05
 Reference value :  1.35252e-05
 Reference value :  1.35269e-05
 Reference value :  1.35290e-05
 Reference value :  1.35309e-05
 Reference value :  1.35336e-05
 Reference value :  1.35379e-05
 Reference value :  1.35440e-05
 Reference value :  1.35535e-05
 Reference value :  1.35649e-05
 Reference value :  1.35758e-05
 Reference value :  1.35846e-05
 Reference value :  1.35944e-05
 Reference value :  1.36066e-05
 Reference value :  1.36149e-05
 Reference value :  1.36233e-05
 Reference value :  1.36304e-05
 Reference value :  1.36389e-05
 Reference value :  1.36560e-05
 Reference value :  1.36861e-05
 Reference value :  1.37212e-05
 Reference value :  1.37501e-05
 Reference value :  1.37501e-05
 Reference value :  1.37501e-05
 Reference value :  1.37502e-05
 Reference value :  1.37502e-05
 Reference value :  1.37502e-05
 Reference value :  1.37502e-05
 Reference value :  1.37502e-05
 Reference value :  1.37502e-05
 Reference value :  1.37502e-05
 Reference value :  1.37502e-05
 Reference value :  1.37503e-05
 Reference value :  1.37504e-05
 Reference value :  1.37506e-05
 Reference value :  1.37509e-05
 Reference value :  1.37513e-05
 Reference value :  1.37519e-05
 Reference value :  1.37525e-05
 Reference value :  1.37532e-05
 Reference value :  1.37541e-05
 Reference value :  1.37553e-05
 Reference value :  1.37562e-05
 Reference value :  1.37572e-05
 Reference value :  1.37582e-05
 Reference value :  1.37598e-05
 Reference value :  1.37612e-05
 Reference value :  1.37638e-05
 Reference value :  1.37667e-05
 Reference value :  1.37722e-05
 Reference value :  1.37832e-05
 Reference value :  1.38021e-05
 Reference value :  1.38401e-05
 Reference value :  1.39118e-05
 Reference value :  1.40000e-05
 Reference value :  1.40000e-05
 Reference value :  1.40000e-05
 Reference value :  1.40001e-05
 Reference value :  1.40001e-05
 Reference value :  1.40001e-05
 Reference value :  1.40001e-05
 Reference value :  1.40001e-05
 Reference value :  1.40002e-05
 Reference value :  1.40002e-05
 Reference value :  1.40004e-05
 Reference value :  1.40005e-05
 Reference value :  1.40009e-05
 Reference value :  1.40014e-05
 Reference value :  1.40022e-05
 Reference value :  1.40029e-05
 Reference value :  1.40036e-05
 Reference value :  1.40043e-05
 Reference value :  1.40052e-05
 Reference value :  1.40062e-05
 Reference value :  1.40072e-05
 Reference value :  1.40086e-05
 Reference value :  1.40100e-05
 Reference value :  1.40112e-05
 Reference value :  1.40125e-05
 Reference value :  1.40137e-05
 Reference value :  1.40152e-05
 Reference value :  1.40167e-05
 Reference value :  1.40184e-05
 Reference value :  1.40217e-05
 Reference value :  1.40284e-05
 Reference value :  1.40398e-05
 Reference value :  1.40624e-05
 Reference value :  1.41050e-05
 Reference value :  1.41846e-05
 Reference value :  1.42501e-05
 Reference value :  1.42501e-05
 Reference value :  1.42501e-05
 Reference value :  1.42502e-05
 Reference value :  1.42502e-05
 Reference value :  1.42502e-05
 Reference value :  1.42502e-05
 Reference value :  1.42502e-05
 Reference value :  1.42502e-05
 Reference value :  1.42502e-05
 Reference value :  1.42502e-05
 Reference value :  1.42503e-05
 Reference value :  1.42504e-05
 Reference value :  1.42506e-05
 Reference value :  1.42509e-05
 Reference value :  1.42514e-05
 Reference value :  1.42519e-05
 Reference value :  1.42525e-05
 Reference value :  1.42533e-05
 Reference value :  1.42541e-05
 Reference value :  1.42553e-05
 Reference value :  1.42562e-05
 Reference value :  1.42572e-05
 Reference value :  1.42582e-05
 Reference value :  1.42593e-05
 Reference value :  1.42606e-05
 Reference value :  1.42630e-05
 Reference value :  1.42657e-05
 Reference value :  1.42703e-05
 Reference value :  1.42788e-05
 Reference value :  1.42957e-05
 Reference value :  1.43287e-05
 Reference value :  1.43946e-05
 Reference value :  1.45000e-05
 Reference value :  1.45000e-05
 Reference value :  1.45000e-05
 Reference value :  1.45001e-05
 Reference value :  1.45001e-05
 Reference value :  1.45001e-05
 Reference value :  1.45001e-05
 Reference value :  1.45001e-05
 Reference value :  1.45002e-05
 Reference value :  1.45002e-05
 Reference value :  1.45004e-05
 Reference value :  1.45005e-05
 Reference value :  1.45009e-05
 Reference value :  1.45014e-05
 Reference value :  1.45022e-05
 Reference value :  1.45029e-05
 Reference value :  1.45036e-05
 Reference value :  1.45043e-05
 Reference value :  1.45053e-05
 Reference value :  1.45060e-05
 Reference value :  1.45069e-05
 Reference value :  1.45078e-05
 Reference value :  1.45087e-05
 Reference value :  1.45096e-05
 Reference value :  1.45106e-05
 Reference value :  1.45117e-05
 Reference value :  1.45135e-05
 Reference value :  1.45158e-05
 Reference value :  1.45181e-05
 Reference value :  1.45206e-05
 Reference value :  1.45224e-05
 Reference value :  1.45241e-05
 Reference value :  1.45258e-05
 Reference value :  1.45276e-05
 Reference value :  1.45295e-05
 Reference value :  1.45319e-05
 Reference value :  1.45344e-05
 Reference value :  1.45393e-05
 Reference value :  1.45455e-05
 Reference value :  1.45532e-05
 Reference value :  1.45614e-05
 Reference value :  1.45693e-05
 Reference value :  1.45754e-05
 Reference value :  1.45818e-05
 Reference value :  1.45881e-05
 Reference value :  1.45952e-05
 Reference value :  1.46034e-05
 Reference value :  1.46123e-05
 Reference value :  1.46203e-05
 Reference value :  1.46288e-05
 Reference value :  1.46382e-05
 Reference value :  1.46472e-05
 Reference value :  1.46576e-05
 Reference value :  1.46752e-05
 Reference value :  1.47086e-05
 Reference value :  1.47485e-05
 Reference value :  1.47501e-05
 Reference value :  1.47501e-05
 Reference value :  1.47501e-05
 Reference value :  1.47502e-05
 Reference value :  1.47502e-05
 Reference value :  1.47502e-05
 Reference value :  1.47502e-05
 Reference value :  1.47502e-05
 Reference value :  1.47502e-05
 Reference value :  1.47502e-05
 Reference value :  1.47502e-05
 Reference value :  1.47503e-05
 Reference value :  1.47504e-05
 Reference value :  1.47506e-05
 Reference value :  1.47509e-05
 Reference value :  1.47513e-05
 Reference value :  1.47519e-05
 Reference value :  1.47525e-05
 Reference value :  1.47532e-05
 Reference value :  1.47541e-05
 Reference value :  1.47553e-05
 Reference value :  1.47562e-05
 Reference value :  1.47571e-05
 Reference value :  1.47582e-05
 Reference value :  1.47598e-05
 Reference value :  1.47612e-05
 Reference value :  1.47637e-05
 Reference value :  1.47667e-05
 Reference value :  1.47721e-05
 Reference value :  1.47831e-05
 Reference value :  1.48020e-05
 Reference value :  1.48400e-05
 Reference value :  1.49124e-05
 Reference value :  1.50000e-05
 Reference value :  1.50000e-05
 Reference value :  1.50000e-05
 Reference value :  1.50001e-05
 Reference value :  1.50001e-05
 Reference value :  1.50001e-05
 Reference value :  1.50001e-05
 Reference value :  1.50001e-05
 Reference value :  1.50002e-05
 Reference value :  1.50002e-05
 Reference value :  1.50004e-05
 Reference value :  1.50005e-05
 Reference value :  1.50009e-05
 Reference value :  1.50014e-05
 Reference value :  1.50022e-05
 Reference value :  1.50029e-05
 Reference value :  1.50036e-05
 Reference value :  1.50043e-05
 Reference value :  1.50052e-05
 Reference value :  1.50062e-05
 Reference value :  1.50072e-05
 Reference value :  1.50086e-05
 Reference value :  1.50100e-05
 Reference value :  1.50112e-05
 Reference value :  1.50126e-05
 Reference value :  1.50139e-05
 Reference value :  1.50154e-05
 Reference value :  1.50169e-05
 Reference value :  1.50186e-05
 Reference value :  1.50221e-05
 Reference value :  1.50289e-05
 Reference value :  1.50404e-05
 Reference value :  1.50634e-05
 Reference value :  1.51064e-05
 Reference value :  1.51866e-05
 Reference value :  1.52501e-05
 Reference value :  1.52501e-05
 Reference value :  1.52501e-05
 Reference value :  1.52502e-05
 Reference value :  1.52502e-05
 Reference value :  1.52502e-05
 Reference value :  1.52502e-05
 Reference value :  1.52502e-05
 Reference value :  1.52502e-05
 Reference value :  1.52502e-05
 Reference value :  1.52502e-05
 Reference value :  1.52503e-05
 Reference value :  1.52504e-05
 Reference value :  1.52506e-05
 Reference value :  1.52509e-05
 Reference value :  1.52514e-05
 Reference value :  1.52519e-05
 Reference value :  1.52525e-05
 Reference value :  1.52533e-05
 Reference value :  1.52541e-05
 Reference value :  1.52553e-05
 Reference value :  1.52562e-05
 Reference value :  1.52572e-05
 Reference value :  1.52582e-05
 Reference value :  1.52593e-05
 Reference value :  1.52606e-05
 Reference value :  1.52630e-05
 Reference value :  1.52657e-05
 Reference value :  1.52703e-05
 Reference value :  1.52788e-05
 Reference value :  1.52957e-05
 Reference value :  1.53287e-05
 Reference value :  1.53947e-05
 Reference value :  1.55000e-05
 Reference value :  1.55017e-05
 Reference value :  1.55050e-05
 Reference value :  1.55067e-05
 Reference value :  1.55084e-05
 Reference value :  1.55098e-05
 Reference value :  1.55112e-05
 Reference value :  1.55128e-05
 Reference value :  1.55144e-05
 Reference value :  1.55166e-05
 Reference value :  1.55191e-05
 Reference value :  1.55212e-05
 Reference value :  1.55230e-05
 Reference value :  1.55248e-05
 Reference value :  1.55265e-05
 Reference value :  1.55284e-05
 Reference value :  1.55303e-05
 Reference value :  1.55323e-05
 Reference value :  1.55350e-05
 Reference value :  1.55390e-05
 Reference value :  1.55440e-05
 Reference value :  1.55502e-05
 Reference value :  1.55564e-05
 Reference value :  1.55675e-05
 Reference value :  1.55815e-05
 Reference value :  1.55968e-05
 Reference value :  1.56208e-05
 Reference value :  1.56420e-05
 Reference value :  1.56642e-05
 Reference value :  1.56864e-05
 Reference value :  1.57108e-05
 Reference value :  1.57501e-05
 Reference value :  1.57501e-05
 Reference value :  1.57501e-05
 Reference value :  1.57502e-05
 Reference value :  1.57502e-05
 Reference value :  1.57502e-05
 Reference value :  1.57502e-05
 Reference value :  1.57502e-05
 Reference value :  1.57502e-05
 Reference value :  1.57502e-05
 Reference value :  1.57502e-05
 Reference value :  1.57503e-05
 Reference value :  1.57504e-05
 Reference value :  1.57506e-05
 Reference value :  1.57509e-05
 Reference value :  1.57514e-05
 Reference value :  1.57519e-05
 Reference value :  1.57525e-05
 Reference value :  1.57533e-05
 Reference value :  1.57541e-05
 Reference value :  1.57553e-05
 Reference value :  1.57562e-05
 Reference value :  1.57572e-05
 Reference value :  1.57583e-05
 Reference value :  1.57599e-05
 Reference value :  1.57614e-05
 Reference value :  1.57638e-05
 Reference value :  1.57670e-05
 Reference value :  1.57725e-05
 Reference value :  1.57836e-05
 Reference value :  1.58027e-05
 Reference value :  1.58405e-05
 Reference value :  1.59101e-05
 Reference value :  1.60000e-05
 Reference value :  1.60000e-05
 Reference value :  1.60000e-05
 Reference value :  1.60001e-05
 Reference value :  1.60001e-05
 Reference value :  1.60001e-05
[...]
 Reference value :  1.74283e-04
 Reference value :  1.74302e-04
 Reference value :  1.74339e-04
 Reference value :  1.74412e-04
 Reference value :  1.74500e-04
 Reference value :  1.74500e-04
 Reference value :  1.74500e-04
 Reference value :  1.74500e-04
 Reference value :  1.74500e-04
 Reference value :  1.74500e-04
 Reference value :  1.74500e-04
 Reference value :  1.74500e-04
 Reference value :  1.74500e-04
 Reference value :  1.74500e-04
 Reference value :  1.74500e-04
 Reference value :  1.74501e-04
 Reference value :  1.74501e-04
 Reference value :  1.74501e-04
 Reference value :  1.74502e-04
 Reference value :  1.74503e-04
 Reference value :  1.74504e-04
 Reference value :  1.74504e-04
 Reference value :  1.74505e-04
 Reference value :  1.74506e-04
 Reference value :  1.74507e-04
 Reference value :  1.74509e-04
 Reference value :  1.74510e-04
 Reference value :  1.74511e-04
 Reference value :  1.74513e-04
 Reference value :  1.74514e-04
 Reference value :  1.74515e-04
 Reference value :  1.74517e-04
 Reference value :  1.74519e-04
 Reference value :  1.74522e-04
 Reference value :  1.74529e-04
 Reference value :  1.74541e-04
 Reference value :  1.74565e-04
 Reference value :  1.74609e-04
 Reference value :  1.74698e-04
 Reference value :  1.74750e-04
 Reference value :  1.74750e-04
 Reference value :  1.74750e-04
 Reference value :  1.74750e-04
 Reference value :  1.74750e-04
 Reference value :  1.74750e-04
 Reference value :  1.74750e-04
 Reference value :  1.74750e-04
 Reference value :  1.74750e-04
 Reference value :  1.74750e-04
 Reference value :  1.74750e-04
 Reference value :  1.74750e-04
 Reference value :  1.74750e-04
 Reference value :  1.74751e-04
 Reference value :  1.74751e-04
 Reference value :  1.74751e-04
 Reference value :  1.74752e-04
 Reference value :  1.74752e-04
 Reference value :  1.74753e-04
 Reference value :  1.74754e-04
 Reference value :  1.74755e-04
 Reference value :  1.74756e-04
 Reference value :  1.74757e-04
 Reference value :  1.74758e-04
 Reference value :  1.74759e-04
 Reference value :  1.74761e-04
 Reference value :  1.74762e-04
 Reference value :  1.74763e-04
 Reference value :  1.74765e-04
 Reference value :  1.74768e-04
 Reference value :  1.74771e-04
 Reference value :  1.74777e-04
 Reference value :  1.74788e-04
 Reference value :  1.74811e-04
 Reference value :  1.74856e-04
 Reference value :  1.74947e-04
 Reference value :  1.75000e-04
 Reference value :  1.75000e-04
 Reference value :  1.75000e-04
 Reference value :  1.75000e-04
 Reference value :  1.75000e-04
 Reference value :  1.75000e-04
 Reference value :  1.75000e-04
 Reference value :  1.75000e-04
 Reference value :  1.75000e-04
 Reference value :  1.75000e-04
 Reference value :  1.75000e-04
 Reference value :  1.75001e-04
 Reference value :  1.75001e-04
 Reference value :  1.75001e-04
 Reference value :  1.75002e-04
 Reference value :  1.75003e-04
 Reference value :  1.75004e-04
 Reference value :  1.75004e-04
 Reference value :  1.75005e-04
 Reference value :  1.75006e-04
 Reference value :  1.75007e-04
 Reference value :  1.75008e-04
 Reference value :  1.75009e-04
 Reference value :  1.75010e-04
 Reference value :  1.75011e-04
 Reference value :  1.75012e-04
 Reference value :  1.75014e-04
 Reference value :  1.75015e-04
 Reference value :  1.75016e-04
 Reference value :  1.75018e-04
 Reference value :  1.75019e-04
 Reference value :  1.75021e-04
 Reference value :  1.75023e-04
 Reference value :  1.75024e-04
 Reference value :  1.75026e-04
 Reference value :  1.75027e-04
 Reference value :  1.75029e-04
 Reference value :  1.75031e-04
 Reference value :  1.75033e-04
 Reference value :  1.75036e-04
 Reference value :  1.75039e-04
 Reference value :  1.75042e-04
 Reference value :  1.75045e-04
 Reference value :  1.75047e-04
 Reference value :  1.75049e-04
 Reference value :  1.75052e-04
 Reference value :  1.75056e-04
 Reference value :  1.75063e-04
 Reference value :  1.75074e-04
 Reference value :  1.75091e-04
 Reference value :  1.75107e-04
 Reference value :  1.75129e-04
 Reference value :  1.75162e-04
 Reference value :  1.75228e-04
 Reference value :  1.75250e-04
 Reference value :  1.75250e-04
 Reference value :  1.75250e-04
 Reference value :  1.75250e-04
 Reference value :  1.75250e-04
 Reference value :  1.75250e-04
 Reference value :  1.75250e-04
 Reference value :  1.75250e-04
 Reference value :  1.75250e-04
 Reference value :  1.75250e-04
 Reference value :  1.75250e-04
 Reference value :  1.75250e-04
 Reference value :  1.75250e-04
 Reference value :  1.75251e-04
 Reference value :  1.75251e-04
 Reference value :  1.75251e-04
 Reference value :  1.75252e-04
 Reference value :  1.75252e-04
 Reference value :  1.75253e-04
 Reference value :  1.75254e-04
 Reference value :  1.75255e-04
 Reference value :  1.75256e-04
 Reference value :  1.75257e-04
 Reference value :  1.75258e-04
 Reference value :  1.75260e-04
 Reference value :  1.75261e-04
 Reference value :  1.75264e-04
 Reference value :  1.75266e-04
 Reference value :  1.75271e-04
 Reference value :  1.75282e-04
 Reference value :  1.75300e-04
 Reference value :  1.75336e-04
 Reference value :  1.75408e-04
 Reference value :  1.75500e-04
 Reference value :  1.75500e-04
 Reference value :  1.75500e-04
 Reference value :  1.75500e-04
 Reference value :  1.75500e-04
 Reference value :  1.75500e-04
 Reference value :  1.75500e-04
 Reference value :  1.75500e-04
 Reference value :  1.75500e-04
 Reference value :  1.75500e-04
 Reference value :  1.75500e-04
 Reference value :  1.75501e-04
 Reference value :  1.75501e-04
 Reference value :  1.75501e-04
 Reference value :  1.75502e-04
 Reference value :  1.75503e-04
 Reference value :  1.75504e-04
 Reference value :  1.75504e-04
 Reference value :  1.75505e-04
 Reference value :  1.75506e-04
 Reference value :  1.75507e-04
 Reference value :  1.75509e-04
 Reference value :  1.75510e-04
 Reference value :  1.75511e-04
 Reference value :  1.75512e-04
 Reference value :  1.75514e-04
 Reference value :  1.75515e-04
 Reference value :  1.75517e-04
 Reference value :  1.75518e-04
 Reference value :  1.75522e-04
 Reference value :  1.75528e-04
 Reference value :  1.75540e-04
 Reference value :  1.75563e-04
 Reference value :  1.75606e-04
 Reference value :  1.75687e-04
 Reference value :  1.75750e-04
 Reference value :  1.75750e-04
 Reference value :  1.75750e-04
 Reference value :  1.75750e-04
 Reference value :  1.75750e-04
 Reference value :  1.75750e-04
 Reference value :  1.75750e-04
 Reference value :  1.75750e-04
 Reference value :  1.75750e-04
 Reference value :  1.75750e-04
 Reference value :  1.75750e-04
 Reference value :  1.75750e-04
 Reference value :  1.75750e-04
 Reference value :  1.75751e-04
 Reference value :  1.75751e-04
 Reference value :  1.75751e-04
 Reference value :  1.75752e-04
 Reference value :  1.75752e-04
 Reference value :  1.75753e-04
 Reference value :  1.75754e-04
 Reference value :  1.75755e-04
 Reference value :  1.75756e-04
 Reference value :  1.75757e-04
 Reference value :  1.75758e-04
 Reference value :  1.75759e-04
 Reference value :  1.75761e-04
 Reference value :  1.75763e-04
 Reference value :  1.75766e-04
 Reference value :  1.75770e-04
 Reference value :  1.75779e-04
 Reference value :  1.75796e-04
 Reference value :  1.75829e-04
 Reference value :  1.75895e-04
 Reference value :  1.76000e-04
 Reference value :  1.76000e-04
 Reference value :  1.76000e-04
 Reference value :  1.76000e-04
 Reference value :  1.76000e-04
 Reference value :  1.76000e-04
 Reference value :  1.76000e-04
 Reference value :  1.76000e-04
 Reference value :  1.76000e-04
 Reference value :  1.76000e-04
 Reference value :  1.76000e-04
 Reference value :  1.76001e-04
 Reference value :  1.76001e-04
 Reference value :  1.76001e-04
 Reference value :  1.76002e-04
 Reference value :  1.76003e-04
 Reference value :  1.76004e-04
 Reference value :  1.76004e-04
 Reference value :  1.76005e-04
 Reference value :  1.76006e-04
 Reference value :  1.76007e-04
 Reference value :  1.76008e-04
 Reference value :  1.76009e-04
 Reference value :  1.76010e-04
 Reference value :  1.76011e-04
 Reference value :  1.76012e-04
 Reference value :  1.76014e-04
 Reference value :  1.76016e-04
 Reference value :  1.76018e-04
 Reference value :  1.76021e-04
 Reference value :  1.76022e-04
 Reference value :  1.76024e-04
 Reference value :  1.76026e-04
 Reference value :  1.76028e-04
 Reference value :  1.76029e-04
 Reference value :  1.76032e-04
 Reference value :  1.76034e-04
 Reference value :  1.76039e-04
 Reference value :  1.76045e-04
 Reference value :  1.76052e-04
 Reference value :  1.76057e-04
 Reference value :  1.76062e-04
 Reference value :  1.76068e-04
 Reference value :  1.76074e-04
 Reference value :  1.76081e-04
 Reference value :  1.76088e-04
 Reference value :  1.76096e-04
 Reference value :  1.76111e-04
 Reference value :  1.76127e-04
 Reference value :  1.76153e-04
 Reference value :  1.76189e-04
 Reference value :  1.76247e-04
 Reference value :  1.76250e-04
 Reference value :  1.76250e-04
 Reference value :  1.76250e-04
 Reference value :  1.76250e-04
 Reference value :  1.76250e-04
 Reference value :  1.76250e-04
 Reference value :  1.76250e-04
 Reference value :  1.76250e-04
 Reference value :  1.76250e-04
 Reference value :  1.76250e-04
 Reference value :  1.76250e-04
 Reference value :  1.76250e-04
 Reference value :  1.76250e-04
 Reference value :  1.76251e-04
 Reference value :  1.76251e-04
 Reference value :  1.76251e-04
 Reference value :  1.76252e-04
 Reference value :  1.76252e-04
 Reference value :  1.76253e-04
 Reference value :  1.76254e-04
 Reference value :  1.76255e-04
 Reference value :  1.76256e-04
 Reference value :  1.76257e-04
 Reference value :  1.76258e-04
 Reference value :  1.76260e-04
 Reference value :  1.76261e-04
 Reference value :  1.76264e-04
 Reference value :  1.76267e-04
 Reference value :  1.76272e-04
 Reference value :  1.76283e-04
 Reference value :  1.76302e-04
 Reference value :  1.76339e-04
 Reference value :  1.76410e-04
 Reference value :  1.76500e-04
 Reference value :  1.76500e-04
 Reference value :  1.76500e-04
 Reference value :  1.76500e-04
 Reference value :  1.76500e-04
 Reference value :  1.76500e-04
 Reference value :  1.76500e-04
 Reference value :  1.76500e-04
 Reference value :  1.76500e-04
 Reference value :  1.76500e-04
 Reference value :  1.76500e-04
 Reference value :  1.76501e-04
 Reference value :  1.76501e-04
 Reference value :  1.76501e-04
 Reference value :  1.76502e-04
 Reference value :  1.76503e-04
 Reference value :  1.76504e-04
 Reference value :  1.76504e-04
 Reference value :  1.76505e-04
 Reference value :  1.76506e-04
 Reference value :  1.76507e-04
 Reference value :  1.76509e-04
 Reference value :  1.76510e-04
 Reference value :  1.76511e-04
 Reference value :  1.76513e-04
 Reference value :  1.76514e-04
 Reference value :  1.76516e-04
 Reference value :  1.76517e-04
 Reference value :  1.76519e-04
 Reference value :  1.76523e-04
 Reference value :  1.76528e-04
 Reference value :  1.76540e-04
 Reference value :  1.76562e-04
 Reference value :  1.76603e-04
 Reference value :  1.76685e-04
 Reference value :  1.76750e-04
 Reference value :  1.76750e-04
 Reference value :  1.76750e-04
 Reference value :  1.76750e-04
 Reference value :  1.76750e-04
 Reference value :  1.76750e-04
 Reference value :  1.76750e-04
 Reference value :  1.76750e-04
 Reference value :  1.76750e-04
 Reference value :  1.76750e-04
 Reference value :  1.76750e-04
 Reference value :  1.76750e-04
 Reference value :  1.76750e-04
 Reference value :  1.76751e-04
 Reference value :  1.76751e-04
 Reference value :  1.76751e-04
 Reference value :  1.76752e-04
 Reference value :  1.76752e-04
 Reference value :  1.76753e-04
 Reference value :  1.76754e-04
 Reference value :  1.76755e-04
 Reference value :  1.76756e-04
 Reference value :  1.76757e-04
 Reference value :  1.76758e-04
 Reference value :  1.76759e-04
 Reference value :  1.76761e-04
 Reference value :  1.76762e-04
 Reference value :  1.76763e-04
 Reference value :  1.76765e-04
 Reference value :  1.76768e-04
 Reference value :  1.76771e-04
 Reference value :  1.76777e-04
 Reference value :  1.76788e-04
 Reference value :  1.76811e-04
 Reference value :  1.76856e-04
 Reference value :  1.76945e-04
 Reference value :  1.77000e-04
 Reference value :  1.77000e-04
 Reference value :  1.77000e-04
 Reference value :  1.77000e-04
 Reference value :  1.77000e-04
 Reference value :  1.77000e-04
 Reference value :  1.77000e-04
 Reference value :  1.77000e-04
 Reference value :  1.77000e-04
 Reference value :  1.77000e-04
 Reference value :  1.77000e-04
 Reference value :  1.77001e-04
 Reference value :  1.77001e-04
 Reference value :  1.77001e-04
 Reference value :  1.77002e-04
 Reference value :  1.77003e-04
 Reference value :  1.77004e-04
 Reference value :  1.77004e-04
 Reference value :  1.77005e-04
 Reference value :  1.77006e-04
 Reference value :  1.77007e-04
 Reference value :  1.77008e-04
 Reference value :  1.77009e-04
 Reference value :  1.77010e-04
 Reference value :  1.77011e-04
 Reference value :  1.77012e-04
 Reference value :  1.77014e-04
 Reference value :  1.77015e-04
 Reference value :  1.77017e-04
 Reference value :  1.77018e-04
 Reference value :  1.77020e-04
 Reference value :  1.77021e-04
 Reference value :  1.77022e-04
 Reference value :  1.77024e-04
 Reference value :  1.77025e-04
 Reference value :  1.77026e-04
 Reference value :  1.77027e-04
 Reference value :  1.77029e-04
 Reference value :  1.77031e-04
 Reference value :  1.77033e-04
 Reference value :  1.77037e-04
 Reference value :  1.77042e-04
 Reference value :  1.77048e-04
 Reference value :  1.77054e-04
 Reference value :  1.77063e-04
 Reference value :  1.77080e-04
 Reference value :  1.77101e-04
 Reference value :  1.77137e-04
 Reference value :  1.77175e-04
 Reference value :  1.77227e-04
 Reference value :  1.77250e-04
 Reference value :  1.77250e-04
 Reference value :  1.77250e-04
 Reference value :  1.77250e-04
 Reference value :  1.77250e-04
 Reference value :  1.77250e-04
 Reference value :  1.77250e-04
 Reference value :  1.77250e-04
 Reference value :  1.77250e-04
 Reference value :  1.77250e-04
 Reference value :  1.77250e-04
 Reference value :  1.77250e-04
 Reference value :  1.77250e-04
 Reference value :  1.77251e-04
 Reference value :  1.77251e-04
 Reference value :  1.77251e-04
 Reference value :  1.77252e-04
 Reference value :  1.77252e-04
 Reference value :  1.77253e-04
 Reference value :  1.77254e-04
 Reference value :  1.77255e-04
 Reference value :  1.77256e-04
 Reference value :  1.77257e-04
 Reference value :  1.77258e-04
 Reference value :  1.77260e-04
 Reference value :  1.77261e-04
 Reference value :  1.77264e-04
 Reference value :  1.77267e-04
 Reference value :  1.77272e-04
 Reference value :  1.77283e-04
 Reference value :  1.77302e-04
 Reference value :  1.77339e-04
 Reference value :  1.77381e-04
 Reference value :  1.77423e-04
 Reference value :  1.77474e-04
 Reference value :  1.77500e-04
 Reference value :  1.77500e-04
 Reference value :  1.77500e-04
 Reference value :  1.77500e-04
 Reference value :  1.77500e-04
 Reference value :  1.77500e-04
 Reference value :  1.77500e-04
 Reference value :  1.77500e-04
 Reference value :  1.77500e-04
 Reference value :  1.77500e-04
 Reference value :  1.77500e-04
 Reference value :  1.77501e-04
 Reference value :  1.77501e-04
 Reference value :  1.77501e-04
 Reference value :  1.77502e-04
 Reference value :  1.77503e-04
 Reference value :  1.77503e-04
 Reference value :  1.77504e-04
 Reference value :  1.77505e-04
 Reference value :  1.77506e-04
 Reference value :  1.77507e-04
 Reference value :  1.77508e-04
 Reference value :  1.77510e-04
 Reference value :  1.77511e-04
 Reference value :  1.77512e-04
 Reference value :  1.77514e-04
 Reference value :  1.77516e-04
 Reference value :  1.77517e-04
 Reference value :  1.77519e-04
 Reference value :  1.77522e-04
 Reference value :  1.77528e-04
 Reference value :  1.77537e-04
 Reference value :  1.77554e-04
 Reference value :  1.77585e-04
 Reference value :  1.77642e-04
 Reference value :  1.77747e-04
 Reference value :  1.77750e-04
 Reference value :  1.77750e-04
 Reference value :  1.77750e-04
 Reference value :  1.77750e-04
 Reference value :  1.77750e-04
 Reference value :  1.77750e-04
 Reference value :  1.77750e-04
 Reference value :  1.77750e-04
 Reference value :  1.77750e-04
 Reference value :  1.77750e-04
 Reference value :  1.77750e-04
 Reference value :  1.77750e-04
 Reference value :  1.77750e-04
 Reference value :  1.77751e-04
 Reference value :  1.77751e-04
 Reference value :  1.77751e-04
 Reference value :  1.77752e-04
 Reference value :  1.77752e-04
 Reference value :  1.77753e-04
 Reference value :  1.77754e-04
 Reference value :  1.77755e-04
 Reference value :  1.77756e-04
 Reference value :  1.77757e-04
 Reference value :  1.77758e-04
 Reference value :  1.77759e-04
 Reference value :  1.77761e-04
 Reference value :  1.77762e-04
 Reference value :  1.77763e-04
 Reference value :  1.77765e-04
 Reference value :  1.77768e-04
 Reference value :  1.77771e-04
 Reference value :  1.77777e-04
 Reference value :  1.77789e-04
 Reference value :  1.77812e-04
 Reference value :  1.77855e-04
 Reference value :  1.77941e-04
 Reference value :  1.78000e-04
 Reference value :  1.78000e-04
 Reference value :  1.78000e-04
 Reference value :  1.78000e-04
 Reference value :  1.78000e-04
 Reference value :  1.78000e-04
 Reference value :  1.78000e-04
 Reference value :  1.78000e-04
 Reference value :  1.78000e-04
 Reference value :  1.78000e-04
 Reference value :  1.78000e-04
 Reference value :  1.78001e-04
 Reference value :  1.78001e-04
 Reference value :  1.78001e-04
 Reference value :  1.78002e-04
 Reference value :  1.78003e-04
 Reference value :  1.78003e-04
 Reference value :  1.78004e-04
 Reference value :  1.78005e-04
 Reference value :  1.78006e-04
 Reference value :  1.78007e-04
 Reference value :  1.78008e-04
 Reference value :  1.78009e-04
 Reference value :  1.78010e-04
 Reference value :  1.78011e-04
 Reference value :  1.78012e-04
 Reference value :  1.78014e-04
 Reference value :  1.78015e-04
 Reference value :  1.78017e-04
 Reference value :  1.78018e-04
 Reference value :  1.78020e-04
 Reference value :  1.78022e-04
 Reference value :  1.78024e-04
 Reference value :  1.78027e-04
 Reference value :  1.78030e-04
 Reference value :  1.78034e-04
 Reference value :  1.78036e-04
 Reference value :  1.78039e-04
 Reference value :  1.78042e-04
 Reference value :  1.78045e-04
 Reference value :  1.78049e-04
 Reference value :  1.78053e-04
 Reference value :  1.78061e-04
 Reference value :  1.78077e-04
 Reference value :  1.78103e-04
 Reference value :  1.78138e-04
 Reference value :  1.78202e-04
 Reference value :  1.78250e-04
 Reference value :  1.78250e-04
 Reference value :  1.78250e-04
 Reference value :  1.78250e-04
 Reference value :  1.78250e-04
 Reference value :  1.78250e-04
 Reference value :  1.78250e-04
 Reference value :  1.78250e-04
 Reference value :  1.78250e-04
 Reference value :  1.78250e-04
 Reference value :  1.78250e-04
 Reference value :  1.78250e-04
 Reference value :  1.78250e-04
 Reference value :  1.78251e-04
 Reference value :  1.78251e-04
 Reference value :  1.78251e-04
 Reference value :  1.78252e-04
 Reference value :  1.78253e-04
 Reference value :  1.78253e-04
 Reference value :  1.78254e-04
 Reference value :  1.78255e-04
 Reference value :  1.78256e-04
 Reference value :  1.78258e-04
 Reference value :  1.78259e-04
 Reference value :  1.78261e-04
 Reference value :  1.78264e-04
 Reference value :  1.78267e-04
 Reference value :  1.78272e-04
 Reference value :  1.78282e-04
 Reference value :  1.78299e-04
 Reference value :  1.78332e-04
 Reference value :  1.78391e-04
 Reference value :  1.78500e-04
No. of Data Rows : 27511
ngspice-44 done
