
Note: Compatibility modes selected: hs a


Circuit: ** sch_path: /home/ece/cace/sar-adc-using-sky130-pdk/runs/run_2025-09-10_19-58-20/parameters/sampling_rate/run_33/sampling_rate.sch

option SCALE: Scale is set to 1e-06 for instance and model parameters
option SCALE: Scale is set to 1e-06 for instance and model parameters
option SCALE: Scale is set to 1e-06 for instance and model parameters
option SCALE: Scale is set to 1e-06 for instance and model parameters
Doing analysis at TEMP = 27.000000 and TNOM = 27.000000

Using KLU as Direct Linear Solver
Operating point simulation skipped by 'uic',
  now using transient initial conditions.
 Reference value :  1.00000e-12
 Reference value :  1.08400e-12
 Reference value :  2.25665e-12
 Reference value :  9.65038e-12
 Reference value :  6.22488e-11
 Reference value :  1.38673e-10
 Reference value :  6.83488e-10
 Reference value :  1.85126e-09
 Reference value :  4.07763e-09
 Reference value :  6.78549e-09
 Reference value :  9.08266e-09
 Reference value :  1.20198e-08
 Reference value :  1.44016e-08
 Reference value :  2.41438e-08
 Reference value :  3.98769e-08
 Reference value :  1.08268e-07
 Reference value :  2.50170e-07
 Reference value :  2.50312e-07
 Reference value :  2.50957e-07
 Reference value :  2.52120e-07
 Reference value :  2.53257e-07
 Reference value :  2.54261e-07
 Reference value :  2.57479e-07
 Reference value :  2.80588e-07
 Reference value :  4.20678e-07
 Reference value :  4.48318e-07
 Reference value :  4.68943e-07
 Reference value :  5.00010e-07
 Reference value :  5.00108e-07
 Reference value :  5.00338e-07
 Reference value :  5.01185e-07
 Reference value :  5.02325e-07
 Reference value :  5.03326e-07
 Reference value :  5.05337e-07
 Reference value :  5.06437e-07
 Reference value :  5.08779e-07
 Reference value :  5.11228e-07
 Reference value :  5.12472e-07
 Reference value :  5.15543e-07
 Reference value :  5.33853e-07
 Reference value :  7.50100e-07
 Reference value :  7.50170e-07
 Reference value :  7.50256e-07
 Reference value :  7.50986e-07
 Reference value :  7.51860e-07
 Reference value :  7.53443e-07
 Reference value :  7.54479e-07
 Reference value :  7.55764e-07
 Reference value :  7.58272e-07
 Reference value :  7.63493e-07
 Reference value :  8.72425e-07
 Reference value :  1.00003e-06
 Reference value :  1.00012e-06
 Reference value :  1.00052e-06
 Reference value :  1.00157e-06
 Reference value :  1.00241e-06
 Reference value :  1.00341e-06
 Reference value :  1.00438e-06
 Reference value :  1.00482e-06
 Reference value :  1.00659e-06
 Reference value :  1.00843e-06
 Reference value :  1.01023e-06
 Reference value :  1.01197e-06
 Reference value :  1.01357e-06
 Reference value :  1.01626e-06
 Reference value :  1.01902e-06
 Reference value :  1.02995e-06
 Reference value :  1.05415e-06
 Reference value :  1.08660e-06
 Reference value :  1.09993e-06
 Reference value :  1.10575e-06
 Reference value :  1.11151e-06
 Reference value :  1.12472e-06
 Reference value :  1.16607e-06
 Reference value :  1.25011e-06
 Reference value :  1.25020e-06
 Reference value :  1.25032e-06
 Reference value :  1.25098e-06
 Reference value :  1.25186e-06
 Reference value :  1.25300e-06
 Reference value :  1.25399e-06
 Reference value :  1.25609e-06
 Reference value :  1.26194e-06
 Reference value :  1.32134e-06
 Reference value :  1.50000e-06
 Reference value :  1.50007e-06
 Reference value :  1.50012e-06
 Reference value :  1.50052e-06
 Reference value :  1.50158e-06
 Reference value :  1.50290e-06
 Reference value :  1.50399e-06
 Reference value :  1.50552e-06
 Reference value :  1.50689e-06
 Reference value :  1.50771e-06
 Reference value :  1.51252e-06
 Reference value :  1.54852e-06
 Reference value :  1.75011e-06
 Reference value :  1.75020e-06
 Reference value :  1.75045e-06
 Reference value :  1.75140e-06
 Reference value :  1.75299e-06
 Reference value :  1.75398e-06
 Reference value :  1.75503e-06
 Reference value :  1.75826e-06
 Reference value :  1.80812e-06
 Reference value :  2.00001e-06
 Reference value :  2.00011e-06
 Reference value :  2.00022e-06
 Reference value :  2.00052e-06
 Reference value :  2.00119e-06
 Reference value :  2.00201e-06
 Reference value :  2.00289e-06
 Reference value :  2.00396e-06
 Reference value :  2.00500e-06
 Reference value :  2.00709e-06
 Reference value :  2.00996e-06
 Reference value :  2.01223e-06
 Reference value :  2.01429e-06
 Reference value :  2.01626e-06
 Reference value :  2.02076e-06
 Reference value :  2.04983e-06
 Reference value :  2.25010e-06
 Reference value :  2.25020e-06
 Reference value :  2.25045e-06
 Reference value :  2.25140e-06
 Reference value :  2.25345e-06
 Reference value :  2.25524e-06
 Reference value :  2.26527e-06
 Reference value :  2.50000e-06
 Reference value :  2.50011e-06
 Reference value :  2.50052e-06
 Reference value :  2.50119e-06
 Reference value :  2.50201e-06
 Reference value :  2.50342e-06
 Reference value :  2.50552e-06
 Reference value :  2.50689e-06
 Reference value :  2.51086e-06
 Reference value :  2.54806e-06
 Reference value :  2.75010e-06
 Reference value :  2.75017e-06
 Reference value :  2.75026e-06
 Reference value :  2.75069e-06
 Reference value :  2.75140e-06
 Reference value :  2.75229e-06
 Reference value :  2.75345e-06
 Reference value :  2.75448e-06
 Reference value :  2.75580e-06
 Reference value :  2.76030e-06
 Reference value :  2.78257e-06
 Reference value :  2.95921e-06
 Reference value :  3.00003e-06
 Reference value :  3.00011e-06
 Reference value :  3.00022e-06
 Reference value :  3.00052e-06
 Reference value :  3.00119e-06
 Reference value :  3.00201e-06
 Reference value :  3.00289e-06
 Reference value :  3.00396e-06
 Reference value :  3.00500e-06
 Reference value :  3.00709e-06
 Reference value :  3.01120e-06
 Reference value :  3.01323e-06
 Reference value :  3.01525e-06
 Reference value :  3.01914e-06
 Reference value :  3.03628e-06
 Reference value :  3.05973e-06
 Reference value :  3.08266e-06
 Reference value :  3.10082e-06
 Reference value :  3.13242e-06
 Reference value :  3.20529e-06
 Reference value :  3.25010e-06
 Reference value :  3.25017e-06
 Reference value :  3.25022e-06
 Reference value :  3.25045e-06
 Reference value :  3.25098e-06
 Reference value :  3.25186e-06
 Reference value :  3.25299e-06
 Reference value :  3.25345e-06
 Reference value :  3.25461e-06
 Reference value :  3.25741e-06
 Reference value :  3.26523e-06
 Reference value :  3.36961e-06
 Reference value :  3.50001e-06
 Reference value :  3.50010e-06
 Reference value :  3.50016e-06
 Reference value :  3.50052e-06
 Reference value :  3.50119e-06
 Reference value :  3.50201e-06
 Reference value :  3.50290e-06
 Reference value :  3.50399e-06
 Reference value :  3.50552e-06
 Reference value :  3.50616e-06
 Reference value :  3.50771e-06
 Reference value :  3.50955e-06
 Reference value :  3.51248e-06
 Reference value :  3.52050e-06
 Reference value :  3.54719e-06
 Reference value :  3.65282e-06
 Reference value :  3.75013e-06
 Reference value :  3.75020e-06
 Reference value :  3.75022e-06
 Reference value :  3.75032e-06
 Reference value :  3.75069e-06
 Reference value :  3.75140e-06
 Reference value :  3.75344e-06
 Reference value :  3.75502e-06
 Reference value :  3.75824e-06
 Reference value :  3.78249e-06
 Reference value :  4.00000e-06
 Reference value :  4.00011e-06
 Reference value :  4.00034e-06
 Reference value :  4.00119e-06
 Reference value :  4.00201e-06
 Reference value :  4.00289e-06
 Reference value :  4.00396e-06
 Reference value :  4.00500e-06
 Reference value :  4.00709e-06
 Reference value :  4.00996e-06
 Reference value :  4.01120e-06
 Reference value :  4.01323e-06
 Reference value :  4.01428e-06
 Reference value :  4.01524e-06
 Reference value :  4.01738e-06
 Reference value :  4.02395e-06
 Reference value :  4.03470e-06
 Reference value :  4.04171e-06
 Reference value :  4.05252e-06
 Reference value :  4.10206e-06
 Reference value :  4.25013e-06
 Reference value :  4.25022e-06
 Reference value :  4.25045e-06
 Reference value :  4.25140e-06
 Reference value :  4.25229e-06
 Reference value :  4.25343e-06
 Reference value :  4.25455e-06
 Reference value :  4.25595e-06
 Reference value :  4.25878e-06
 Reference value :  4.26495e-06
 Reference value :  4.28576e-06
 Reference value :  4.48005e-06
 Reference value :  4.50003e-06
 Reference value :  4.50011e-06
 Reference value :  4.50022e-06
 Reference value :  4.50083e-06
 Reference value :  4.50154e-06
 Reference value :  4.50282e-06
 Reference value :  4.50536e-06
 Reference value :  4.50749e-06
 Reference value :  4.51028e-06
 Reference value :  4.52228e-06
 Reference value :  4.64496e-06
 Reference value :  4.75013e-06
 Reference value :  4.75021e-06
 Reference value :  4.75032e-06
 Reference value :  4.75098e-06
 Reference value :  4.75186e-06
 Reference value :  4.75299e-06
 Reference value :  4.75344e-06
 Reference value :  4.75397e-06
 Reference value :  4.75502e-06
 Reference value :  4.75661e-06
 Reference value :  4.75836e-06
 Reference value :  4.76105e-06
 Reference value :  4.77489e-06
 Reference value :  4.87979e-06
 Reference value :  5.00003e-06
 Reference value :  5.00011e-06
 Reference value :  5.00022e-06
 Reference value :  5.00083e-06
 Reference value :  5.00158e-06
 Reference value :  5.00242e-06
 Reference value :  5.00342e-06
 Reference value :  5.00484e-06
 Reference value :  5.00758e-06
 Reference value :  5.00928e-06
 Reference value :  5.01111e-06
 Reference value :  5.01269e-06
 Reference value :  5.01355e-06
 Reference value :  5.01630e-06
 Reference value :  5.02408e-06
 Reference value :  5.04388e-06
 Reference value :  5.06271e-06
 Reference value :  5.08072e-06
 Reference value :  5.09782e-06
 Reference value :  5.13201e-06
 Reference value :  5.20334e-06
 Reference value :  5.25013e-06
 Reference value :  5.25022e-06
 Reference value :  5.25069e-06
 Reference value :  5.25140e-06
 Reference value :  5.25299e-06
 Reference value :  5.25396e-06
 Reference value :  5.25601e-06
 Reference value :  5.26544e-06
 Reference value :  5.31691e-06
 Reference value :  5.50001e-06
 Reference value :  5.50010e-06
 Reference value :  5.50022e-06
 Reference value :  5.50083e-06
 Reference value :  5.50154e-06
 Reference value :  5.50282e-06
 Reference value :  5.50389e-06
 Reference value :  5.50536e-06
 Reference value :  5.50598e-06
 Reference value :  5.50749e-06
 Reference value :  5.50924e-06
 Reference value :  5.51143e-06
 Reference value :  5.53173e-06
 Reference value :  5.75010e-06
 Reference value :  5.75017e-06
 Reference value :  5.75022e-06
 Reference value :  5.75045e-06
 Reference value :  5.75140e-06
 Reference value :  5.75299e-06
 Reference value :  5.75397e-06
 Reference value :  5.75502e-06
 Reference value :  5.75660e-06
 Reference value :  5.75962e-06
 Reference value :  5.77470e-06
 Reference value :  5.99633e-06
 Reference value :  6.00003e-06
 Reference value :  6.00011e-06
 Reference value :  6.00022e-06
 Reference value :  6.00083e-06
 Reference value :  6.00158e-06
 Reference value :  6.00242e-06
 Reference value :  6.00342e-06
 Reference value :  6.00390e-06
 Reference value :  6.00484e-06
 Reference value :  6.00664e-06
 Reference value :  6.00850e-06
 Reference value :  6.01016e-06
 Reference value :  6.01188e-06
 Reference value :  6.01349e-06
 Reference value :  6.01628e-06
 Reference value :  6.02039e-06
 Reference value :  6.03781e-06
 Reference value :  6.07641e-06
 Reference value :  6.16893e-06
 Reference value :  6.23850e-06
 Reference value :  6.25011e-06
 Reference value :  6.25020e-06
 Reference value :  6.25045e-06
 Reference value :  6.25140e-06
 Reference value :  6.25229e-06
 Reference value :  6.25344e-06
 Reference value :  6.25462e-06
 Reference value :  6.25601e-06
 Reference value :  6.26176e-06
 Reference value :  6.28747e-06
 Reference value :  6.49313e-06
 Reference value :  6.50003e-06
 Reference value :  6.50010e-06
 Reference value :  6.50016e-06
 Reference value :  6.50052e-06
 Reference value :  6.50119e-06
 Reference value :  6.50154e-06
 Reference value :  6.50235e-06
 Reference value :  6.50282e-06
 Reference value :  6.50333e-06
 Reference value :  6.50464e-06
 Reference value :  6.50598e-06
 Reference value :  6.50749e-06
 Reference value :  6.51028e-06
 Reference value :  6.52218e-06
 Reference value :  6.64316e-06
 Reference value :  6.75013e-06
 Reference value :  6.75021e-06
 Reference value :  6.75032e-06
 Reference value :  6.75069e-06
 Reference value :  6.75139e-06
 Reference value :  6.75229e-06
 Reference value :  6.75344e-06
 Reference value :  6.75447e-06
 Reference value :  6.75579e-06
 Reference value :  6.75749e-06
 Reference value :  6.75962e-06
 Reference value :  6.77470e-06
 Reference value :  6.99638e-06
 Reference value :  7.00003e-06
 Reference value :  7.00011e-06
 Reference value :  7.00022e-06
 Reference value :  7.00083e-06
 Reference value :  7.00158e-06
 Reference value :  7.00242e-06
 Reference value :  7.00342e-06
 Reference value :  7.00390e-06
 Reference value :  7.00484e-06
 Reference value :  7.00593e-06
 Reference value :  7.00758e-06
 Reference value :  7.00933e-06
 Reference value :  7.01016e-06
 Reference value :  7.01188e-06
 Reference value :  7.01341e-06
 Reference value :  7.01505e-06
 Reference value :  7.01682e-06
 Reference value :  7.02244e-06
 Reference value :  7.03143e-06
 Reference value :  7.04132e-06
 Reference value :  7.07243e-06
 Reference value :  7.12861e-06
 Reference value :  7.25011e-06
 Reference value :  7.25020e-06
 Reference value :  7.25026e-06
 Reference value :  7.25069e-06
 Reference value :  7.25140e-06
 Reference value :  7.25299e-06
 Reference value :  7.25398e-06
 Reference value :  7.25523e-06
 Reference value :  7.25887e-06
 Reference value :  7.28655e-06
 Reference value :  7.50000e-06
 Reference value :  7.50010e-06
 Reference value :  7.50022e-06
 Reference value :  7.50119e-06
 Reference value :  7.50242e-06
 Reference value :  7.50342e-06
 Reference value :  7.50553e-06
 Reference value :  7.50689e-06
 Reference value :  7.50771e-06
 Reference value :  7.51086e-06
 Reference value :  7.54739e-06
 Reference value :  7.75013e-06
 Reference value :  7.75026e-06
 Reference value :  7.75098e-06
 Reference value :  7.75186e-06
 Reference value :  7.75299e-06
 Reference value :  7.75344e-06
 Reference value :  7.75448e-06
 Reference value :  7.75579e-06
 Reference value :  7.76026e-06
 Reference value :  7.78221e-06
 Reference value :  7.85675e-06
 Reference value :  8.00001e-06
 Reference value :  8.00007e-06
 Reference value :  8.00011e-06
 Reference value :  8.00016e-06
 Reference value :  8.00034e-06
 Reference value :  8.00083e-06
 Reference value :  8.00158e-06
 Reference value :  8.00242e-06
 Reference value :  8.00341e-06
 Reference value :  8.00452e-06
 Reference value :  8.00558e-06
 Reference value :  8.00717e-06
 Reference value :  8.00885e-06
 Reference value :  8.01176e-06
 Reference value :  8.02265e-06
 Reference value :  8.06468e-06
 Reference value :  8.23282e-06
 Reference value :  8.25011e-06
 Reference value :  8.25017e-06
 Reference value :  8.25020e-06
 Reference value :  8.25022e-06
 Reference value :  8.25032e-06
 Reference value :  8.25070e-06
 Reference value :  8.25139e-06
 Reference value :  8.25228e-06
 Reference value :  8.25364e-06
 Reference value :  8.25535e-06
 Reference value :  8.25767e-06
 Reference value :  8.26625e-06
 Reference value :  8.29144e-06
 Reference value :  8.32167e-06
 Reference value :  8.50000e-06
 Reference value :  8.50003e-06
 Reference value :  8.50010e-06
 Reference value :  8.50016e-06
 Reference value :  8.50035e-06
 Reference value :  8.50091e-06
 Reference value :  8.50135e-06
 Reference value :  8.50228e-06
 Reference value :  8.50335e-06
 Reference value :  8.50438e-06
 Reference value :  8.50548e-06
 Reference value :  8.50885e-06
 Reference value :  8.52169e-06
 Reference value :  8.52581e-06
 Reference value :  8.52876e-06
 Reference value :  8.53077e-06
 Reference value :  8.53257e-06
 Reference value :  8.53401e-06
 Reference value :  8.53666e-06
 Reference value :  8.54200e-06
 Reference value :  8.54888e-06
 Reference value :  8.55650e-06
 Reference value :  8.57777e-06
 Reference value :  8.62971e-06
 Reference value :  8.74347e-06
 Reference value :  8.75011e-06
 Reference value :  8.75020e-06
 Reference value :  8.75026e-06
 Reference value :  8.75045e-06
 Reference value :  8.75098e-06
 Reference value :  8.75139e-06
 Reference value :  8.75229e-06
 Reference value :  8.75342e-06
 Reference value :  8.75457e-06
 Reference value :  8.75593e-06
 Reference value :  8.76150e-06
 Reference value :  8.78549e-06
 Reference value :  8.95665e-06
No. of Data Rows : 1331
ngspice-44 done
