
Note: Compatibility modes selected: hs a


Circuit: ** sch_path: /home/ece/cace/sar-adc-using-sky130-pdk/runs/run_2025-09-13_02-29-14/parameters/sndr/run_1/sndr_enob_fom.sch

option SCALE: Scale is set to 1e-06 for instance and model parameters
option SCALE: Scale is set to 1e-06 for instance and model parameters
option SCALE: Scale is set to 1e-06 for instance and model parameters
option SCALE: Scale is set to 1e-06 for instance and model parameters
Doing analysis at TEMP = 27.000000 and TNOM = 27.000000

Using KLU as Direct Linear Solver
Operating point simulation skipped by 'uic',
  now using transient initial conditions.
 Reference value :  1.00000e-12
 Reference value :  1.08400e-12
 Reference value :  1.71490e-12
 Reference value :  6.24820e-12
 Reference value :  3.15222e-11
 Reference value :  1.04825e-10
 Reference value :  1.72376e-10
 Reference value :  6.45393e-10
 Reference value :  1.87227e-09
 Reference value :  4.21286e-09
 Reference value :  5.95347e-09
 Reference value :  7.92591e-09
 Reference value :  9.50830e-09
 Reference value :  1.30402e-08
 Reference value :  1.41851e-08
 Reference value :  1.58988e-08
 Reference value :  1.95308e-08
 Reference value :  2.90187e-08
 Reference value :  5.09668e-08
 Reference value :  1.28626e-07
 Reference value :  2.50110e-07
 Reference value :  2.50208e-07
 Reference value :  2.50547e-07
 Reference value :  2.51921e-07
 Reference value :  2.53954e-07
 Reference value :  2.56012e-07
 Reference value :  2.60861e-07
 Reference value :  2.82595e-07
 Reference value :  2.97672e-07
 Reference value :  3.07672e-07
 Reference value :  3.40670e-07
 Reference value :  5.00010e-07
 Reference value :  5.00124e-07
 Reference value :  5.00520e-07
 Reference value :  5.01767e-07
 Reference value :  5.03328e-07
 Reference value :  5.06787e-07
 Reference value :  5.11274e-07
 Reference value :  5.14369e-07
 Reference value :  5.17704e-07
 Reference value :  5.26053e-07
 Reference value :  5.96295e-07
 Reference value :  7.50110e-07
 Reference value :  7.50200e-07
 Reference value :  7.50320e-07
 Reference value :  7.51069e-07
 Reference value :  7.52047e-07
 Reference value :  7.54060e-07
 Reference value :  7.55411e-07
 Reference value :  7.57977e-07
 Reference value :  7.61465e-07
 Reference value :  7.69374e-07
 Reference value :  7.99939e-07
 Reference value :  1.00000e-06
 Reference value :  1.00007e-06
 Reference value :  1.00016e-06
 Reference value :  1.00052e-06
 Reference value :  1.00130e-06
 Reference value :  1.00224e-06
 Reference value :  1.00404e-06
 Reference value :  1.00521e-06
 Reference value :  1.00643e-06
 Reference value :  1.00899e-06
 Reference value :  1.01143e-06
 Reference value :  1.01376e-06
 Reference value :  1.01608e-06
 Reference value :  1.01828e-06
 Reference value :  1.02203e-06
 Reference value :  1.03039e-06
 Reference value :  1.06733e-06
 Reference value :  1.20719e-06
 Reference value :  1.24234e-06
 Reference value :  1.25017e-06
 Reference value :  1.25026e-06
 Reference value :  1.25106e-06
 Reference value :  1.25204e-06
 Reference value :  1.25329e-06
 Reference value :  1.25469e-06
 Reference value :  1.25695e-06
 Reference value :  1.26534e-06
 Reference value :  1.33336e-06
 Reference value :  1.50001e-06
 Reference value :  1.50010e-06
 Reference value :  1.50022e-06
 Reference value :  1.50086e-06
 Reference value :  1.50176e-06
 Reference value :  1.50277e-06
 Reference value :  1.50463e-06
 Reference value :  1.50730e-06
 Reference value :  1.50925e-06
 Reference value :  1.51122e-06
 Reference value :  1.51363e-06
 Reference value :  1.53095e-06
 Reference value :  1.75010e-06
 Reference value :  1.75017e-06
 Reference value :  1.75022e-06
 Reference value :  1.75045e-06
 Reference value :  1.75154e-06
 Reference value :  1.75257e-06
 Reference value :  1.75406e-06
 Reference value :  1.75540e-06
 Reference value :  1.75698e-06
 Reference value :  1.76545e-06
 Reference value :  1.83212e-06
 Reference value :  2.00001e-06
 Reference value :  2.00010e-06
 Reference value :  2.00016e-06
 Reference value :  2.00052e-06
 Reference value :  2.00130e-06
 Reference value :  2.00224e-06
 Reference value :  2.00403e-06
 Reference value :  2.00520e-06
 Reference value :  2.00643e-06
 Reference value :  2.00800e-06
 Reference value :  2.01061e-06
 Reference value :  2.01401e-06
 Reference value :  2.01671e-06
 Reference value :  2.01909e-06
 Reference value :  2.02345e-06
 Reference value :  2.04282e-06
 Reference value :  2.06127e-06
 Reference value :  2.07588e-06
 Reference value :  2.09389e-06
 Reference value :  2.13068e-06
 Reference value :  2.25011e-06
 Reference value :  2.25020e-06
 Reference value :  2.25032e-06
 Reference value :  2.25106e-06
 Reference value :  2.25202e-06
 Reference value :  2.25326e-06
 Reference value :  2.25465e-06
 Reference value :  2.25694e-06
 Reference value :  2.26191e-06
 Reference value :  2.28209e-06
 Reference value :  2.38990e-06
 Reference value :  2.50003e-06
 Reference value :  2.50011e-06
 Reference value :  2.50022e-06
 Reference value :  2.50086e-06
 Reference value :  2.50130e-06
 Reference value :  2.50221e-06
 Reference value :  2.50405e-06
 Reference value :  2.50674e-06
 Reference value :  2.50753e-06
 Reference value :  2.50946e-06
 Reference value :  2.51277e-06
 Reference value :  2.52860e-06
 Reference value :  2.72203e-06
 Reference value :  2.75013e-06
 Reference value :  2.75021e-06
 Reference value :  2.75032e-06
 Reference value :  2.75070e-06
 Reference value :  2.75202e-06
 Reference value :  2.75403e-06
 Reference value :  2.75533e-06
 Reference value :  2.75697e-06
 Reference value :  2.75885e-06
 Reference value :  2.76127e-06
 Reference value :  2.76551e-06
 Reference value :  2.77521e-06
 Reference value :  2.79877e-06
 Reference value :  2.85811e-06
 Reference value :  3.00000e-06
 Reference value :  3.00003e-06
 Reference value :  3.00010e-06
 Reference value :  3.00022e-06
 Reference value :  3.00086e-06
 Reference value :  3.00176e-06
 Reference value :  3.00277e-06
 Reference value :  3.00457e-06
 Reference value :  3.00583e-06
 Reference value :  3.00712e-06
 Reference value :  3.00901e-06
 Reference value :  3.01145e-06
 Reference value :  3.01377e-06
 Reference value :  3.01613e-06
 Reference value :  3.01838e-06
 Reference value :  3.02092e-06
 Reference value :  3.02683e-06
 Reference value :  3.05294e-06
 Reference value :  3.07995e-06
 Reference value :  3.09356e-06
 Reference value :  3.10341e-06
 Reference value :  3.12152e-06
 Reference value :  3.13941e-06
 Reference value :  3.18270e-06
 Reference value :  3.25011e-06
 Reference value :  3.25020e-06
 Reference value :  3.25032e-06
 Reference value :  3.25105e-06
 Reference value :  3.25202e-06
 Reference value :  3.25405e-06
 Reference value :  3.25533e-06
 Reference value :  3.25686e-06
 Reference value :  3.26504e-06
 Reference value :  3.33155e-06
 Reference value :  3.50003e-06
 Reference value :  3.50011e-06
 Reference value :  3.50035e-06
 Reference value :  3.50130e-06
 Reference value :  3.50224e-06
 Reference value :  3.50399e-06
 Reference value :  3.50532e-06
 Reference value :  3.50730e-06
 Reference value :  3.50925e-06
 Reference value :  3.51122e-06
 Reference value :  3.51616e-06
 Reference value :  3.58917e-06
 Reference value :  3.75013e-06
 Reference value :  3.75022e-06
 Reference value :  3.75070e-06
 Reference value :  3.75203e-06
 Reference value :  3.75406e-06
 Reference value :  3.75469e-06
 Reference value :  3.75609e-06
 Reference value :  3.75787e-06
 Reference value :  3.76541e-06
 Reference value :  3.79954e-06
 Reference value :  3.98113e-06
 Reference value :  4.00003e-06
 Reference value :  4.00010e-06
 Reference value :  4.00016e-06
 Reference value :  4.00052e-06
 Reference value :  4.00130e-06
 Reference value :  4.00224e-06
 Reference value :  4.00340e-06
 Reference value :  4.00458e-06
 Reference value :  4.00582e-06
 Reference value :  4.00711e-06
 Reference value :  4.01062e-06
 Reference value :  4.01402e-06
 Reference value :  4.01537e-06
 Reference value :  4.01797e-06
 Reference value :  4.02030e-06
 Reference value :  4.02535e-06
 Reference value :  4.03672e-06
 Reference value :  4.04577e-06
 Reference value :  4.05215e-06
 Reference value :  4.05986e-06
 Reference value :  4.07739e-06
 Reference value :  4.11459e-06
 Reference value :  4.25010e-06
 Reference value :  4.25017e-06
 Reference value :  4.25026e-06
 Reference value :  4.25070e-06
 Reference value :  4.25202e-06
 Reference value :  4.25401e-06
 Reference value :  4.25532e-06
 Reference value :  4.25787e-06
 Reference value :  4.27117e-06
 Reference value :  4.49977e-06
 Reference value :  4.50007e-06
 Reference value :  4.50016e-06
 Reference value :  4.50086e-06
 Reference value :  4.50177e-06
 Reference value :  4.50270e-06
 Reference value :  4.50485e-06
 Reference value :  4.50674e-06
 Reference value :  4.50753e-06
 Reference value :  4.50946e-06
 Reference value :  4.51277e-06
 Reference value :  4.52843e-06
 Reference value :  4.71657e-06
 Reference value :  4.75013e-06
 Reference value :  4.75022e-06
 Reference value :  4.75045e-06
 Reference value :  4.75105e-06
 Reference value :  4.75202e-06
 Reference value :  4.75403e-06
 Reference value :  4.75532e-06
 Reference value :  4.75786e-06
 Reference value :  4.76125e-06
 Reference value :  4.77518e-06
 Reference value :  4.85819e-06
 Reference value :  5.00003e-06
 Reference value :  5.00012e-06
 Reference value :  5.00035e-06
 Reference value :  5.00130e-06
 Reference value :  5.00224e-06
 Reference value :  5.00403e-06
 Reference value :  5.00457e-06
 Reference value :  5.00583e-06
 Reference value :  5.00712e-06
 Reference value :  5.00901e-06
 Reference value :  5.01146e-06
 Reference value :  5.01378e-06
 Reference value :  5.01619e-06
 Reference value :  5.01849e-06
 Reference value :  5.02112e-06
 Reference value :  5.02762e-06
 Reference value :  5.05287e-06
 Reference value :  5.08493e-06
 Reference value :  5.14615e-06
 Reference value :  5.18253e-06
 Reference value :  5.25010e-06
 Reference value :  5.25017e-06
 Reference value :  5.25022e-06
 Reference value :  5.25032e-06
 Reference value :  5.25105e-06
 Reference value :  5.25203e-06
 Reference value :  5.25328e-06
 Reference value :  5.25465e-06
 Reference value :  5.25599e-06
 Reference value :  5.25688e-06
 Reference value :  5.25953e-06
 Reference value :  5.27076e-06
 Reference value :  5.33062e-06
 Reference value :  5.50000e-06
 Reference value :  5.50007e-06
 Reference value :  5.50012e-06
 Reference value :  5.50035e-06
 Reference value :  5.50130e-06
 Reference value :  5.50221e-06
 Reference value :  5.50332e-06
 Reference value :  5.50485e-06
 Reference value :  5.50674e-06
 Reference value :  5.50754e-06
 Reference value :  5.50947e-06
 Reference value :  5.51158e-06
 Reference value :  5.51412e-06
 Reference value :  5.52837e-06
 Reference value :  5.61586e-06
 Reference value :  5.75011e-06
 Reference value :  5.75017e-06
 Reference value :  5.75022e-06
 Reference value :  5.75045e-06
 Reference value :  5.75105e-06
 Reference value :  5.75202e-06
 Reference value :  5.75325e-06
 Reference value :  5.75464e-06
 Reference value :  5.75604e-06
 Reference value :  5.75694e-06
 Reference value :  5.75882e-06
 Reference value :  5.76123e-06
 Reference value :  5.76901e-06
 Reference value :  5.79850e-06
 Reference value :  5.91604e-06
 Reference value :  6.00003e-06
 Reference value :  6.00010e-06
 Reference value :  6.00012e-06
 Reference value :  6.00035e-06
 Reference value :  6.00130e-06
 Reference value :  6.00224e-06
 Reference value :  6.00403e-06
 Reference value :  6.00457e-06
 Reference value :  6.00583e-06
 Reference value :  6.00712e-06
 Reference value :  6.01047e-06
 Reference value :  6.01146e-06
 Reference value :  6.01378e-06
 Reference value :  6.01623e-06
 Reference value :  6.01976e-06
 Reference value :  6.02509e-06
 Reference value :  6.04225e-06
 Reference value :  6.08351e-06
 Reference value :  6.25010e-06
 Reference value :  6.25017e-06
 Reference value :  6.25026e-06
 Reference value :  6.25070e-06
 Reference value :  6.25203e-06
 Reference value :  6.25404e-06
 Reference value :  6.25533e-06
 Reference value :  6.25688e-06
 Reference value :  6.26510e-06
 Reference value :  6.33042e-06
 Reference value :  6.50001e-06
 Reference value :  6.50011e-06
 Reference value :  6.50035e-06
 Reference value :  6.50130e-06
 Reference value :  6.50221e-06
 Reference value :  6.50405e-06
 Reference value :  6.50674e-06
 Reference value :  6.50843e-06
 Reference value :  6.51056e-06
 Reference value :  6.51278e-06
 Reference value :  6.52833e-06
 Reference value :  6.71280e-06
 Reference value :  6.75013e-06
 Reference value :  6.75021e-06
 Reference value :  6.75032e-06
 Reference value :  6.75070e-06
 Reference value :  6.75152e-06
 Reference value :  6.75201e-06
 Reference value :  6.75325e-06
 Reference value :  6.75464e-06
 Reference value :  6.75694e-06
 Reference value :  6.75994e-06
 Reference value :  6.76543e-06
 Reference value :  6.78373e-06
 Reference value :  6.85757e-06
 Reference value :  7.00001e-06
 Reference value :  7.00007e-06
 Reference value :  7.00012e-06
 Reference value :  7.00035e-06
 Reference value :  7.00130e-06
 Reference value :  7.00224e-06
 Reference value :  7.00403e-06
 Reference value :  7.00457e-06
 Reference value :  7.00583e-06
 Reference value :  7.00712e-06
 Reference value :  7.01047e-06
 Reference value :  7.01146e-06
 Reference value :  7.01379e-06
 Reference value :  7.01625e-06
 Reference value :  7.01866e-06
 Reference value :  7.02286e-06
 Reference value :  7.03403e-06
 Reference value :  7.07862e-06
 Reference value :  7.25010e-06
 Reference value :  7.25017e-06
 Reference value :  7.25022e-06
 Reference value :  7.25045e-06
 Reference value :  7.25153e-06
 Reference value :  7.25256e-06
 Reference value :  7.25404e-06
 Reference value :  7.25533e-06
 Reference value :  7.25688e-06
 Reference value :  7.26174e-06
 Reference value :  7.29855e-06
 Reference value :  7.50000e-06
 Reference value :  7.50007e-06
 Reference value :  7.50016e-06
 Reference value :  7.50052e-06
 Reference value :  7.50130e-06
 Reference value :  7.50221e-06
 Reference value :  7.50405e-06
 Reference value :  7.50561e-06
 Reference value :  7.50754e-06
 Reference value :  7.50947e-06
 Reference value :  7.51278e-06
 Reference value :  7.52829e-06
 Reference value :  7.61472e-06
 Reference value :  7.75011e-06
 Reference value :  7.75020e-06
 Reference value :  7.75026e-06
 Reference value :  7.75070e-06
 Reference value :  7.75152e-06
 Reference value :  7.75254e-06
 Reference value :  7.75403e-06
 Reference value :  7.75464e-06
 Reference value :  7.75604e-06
 Reference value :  7.75784e-06
 Reference value :  7.75994e-06
 Reference value :  7.76315e-06
 Reference value :  7.77507e-06
 Reference value :  7.82118e-06
 Reference value :  8.00001e-06
 Reference value :  8.00007e-06
 Reference value :  8.00012e-06
 Reference value :  8.00035e-06
 Reference value :  8.00086e-06
 Reference value :  8.00130e-06
 Reference value :  8.00224e-06
 Reference value :  8.00403e-06
 Reference value :  8.00457e-06
 Reference value :  8.00583e-06
 Reference value :  8.00644e-06
 Reference value :  8.00802e-06
 Reference value :  8.01001e-06
 Reference value :  8.01082e-06
 Reference value :  8.01278e-06
 Reference value :  8.01628e-06
 Reference value :  8.02082e-06
 Reference value :  8.03508e-06
 Reference value :  8.05754e-06
 Reference value :  8.07074e-06
 Reference value :  8.08012e-06
 Reference value :  8.12078e-06
 Reference value :  8.17094e-06
 Reference value :  8.25013e-06
 Reference value :  8.25026e-06
 Reference value :  8.25105e-06
 Reference value :  8.25254e-06
 Reference value :  8.25609e-06
 Reference value :  8.26282e-06
 Reference value :  8.29391e-06
 Reference value :  8.50001e-06
 Reference value :  8.50011e-06
 Reference value :  8.50035e-06
 Reference value :  8.50151e-06
 Reference value :  8.50256e-06
 Reference value :  8.50374e-06
 Reference value :  8.50569e-06
 Reference value :  8.50781e-06
 Reference value :  8.52128e-06
 Reference value :  8.52725e-06
 Reference value :  8.53292e-06
 Reference value :  8.54055e-06
 Reference value :  8.54884e-06
 Reference value :  8.55351e-06
 Reference value :  8.56070e-06
 Reference value :  8.57058e-06
 Reference value :  8.63399e-06
 Reference value :  8.75010e-06
 Reference value :  8.75020e-06
 Reference value :  8.75032e-06
 Reference value :  8.75105e-06
 Reference value :  8.75201e-06
 Reference value :  8.75326e-06
 Reference value :  8.75463e-06
 Reference value :  8.75596e-06
 Reference value :  8.75772e-06
 Reference value :  8.76490e-06
 Reference value :  8.83004e-06
 Reference value :  8.93987e-06
 Reference value :  8.99386e-06
 Reference value :  9.00001e-06
 Reference value :  9.00010e-06
 Reference value :  9.00022e-06
 Reference value :  9.00130e-06
 Reference value :  9.00222e-06
 Reference value :  9.00486e-06
 Reference value :  9.00809e-06
 Reference value :  9.01130e-06
 Reference value :  9.01440e-06
 Reference value :  9.01749e-06
 Reference value :  9.02182e-06
 Reference value :  9.05977e-06
 Reference value :  9.25011e-06
 Reference value :  9.25020e-06
 Reference value :  9.25032e-06
 Reference value :  9.25105e-06
 Reference value :  9.25327e-06
 Reference value :  9.25536e-06
 Reference value :  9.25873e-06
 Reference value :  9.26451e-06
 Reference value :  9.34190e-06
 Reference value :  9.50007e-06
 Reference value :  9.50022e-06
 Reference value :  9.50130e-06
 Reference value :  9.50277e-06
 Reference value :  9.50457e-06
 Reference value :  9.50583e-06
 Reference value :  9.50800e-06
 Reference value :  9.51144e-06
 Reference value :  9.51377e-06
 Reference value :  9.51722e-06
 Reference value :  9.52102e-06
 Reference value :  9.53814e-06
 Reference value :  9.60324e-06
 Reference value :  9.70507e-06
 Reference value :  9.73964e-06
 Reference value :  9.75013e-06
 Reference value :  9.75022e-06
 Reference value :  9.75045e-06
 Reference value :  9.75153e-06
 Reference value :  9.75328e-06
 Reference value :  9.75466e-06
 Reference value :  9.75689e-06
 Reference value :  9.76175e-06
 Reference value :  9.83009e-06
 Reference value :  1.00000e-05
 Reference value :  1.00001e-05
 Reference value :  1.00002e-05
 Reference value :  1.00013e-05
 Reference value :  1.00022e-05
 Reference value :  1.00040e-05
 Reference value :  1.00053e-05
 Reference value :  1.00073e-05
 Reference value :  1.00093e-05
 Reference value :  1.00112e-05
 Reference value :  1.00136e-05
 Reference value :  1.00503e-05
 Reference value :  1.02501e-05
 Reference value :  1.02502e-05
 Reference value :  1.02503e-05
 Reference value :  1.02504e-05
 Reference value :  1.02511e-05
 Reference value :  1.02520e-05
 Reference value :  1.02533e-05
 Reference value :  1.02541e-05
 Reference value :  1.02547e-05
 Reference value :  1.02570e-05
 Reference value :  1.02620e-05
 Reference value :  1.02998e-05
 Reference value :  1.05000e-05
 Reference value :  1.05001e-05
 Reference value :  1.05002e-05
 Reference value :  1.05005e-05
 Reference value :  1.05013e-05
 Reference value :  1.05022e-05
 Reference value :  1.05034e-05
 Reference value :  1.05046e-05
 Reference value :  1.05058e-05
 Reference value :  1.05080e-05
 Reference value :  1.05140e-05
 Reference value :  1.05180e-05
 Reference value :  1.05216e-05
 Reference value :  1.05428e-05
 Reference value :  1.05634e-05
 Reference value :  1.05806e-05
 Reference value :  1.06007e-05
 Reference value :  1.07501e-05
 Reference value :  1.07502e-05
 Reference value :  1.07511e-05
 Reference value :  1.07526e-05
 Reference value :  1.07547e-05
 Reference value :  1.07571e-05
 Reference value :  1.07727e-05
 Reference value :  1.09819e-05
 Reference value :  1.10001e-05
 Reference value :  1.10003e-05
 Reference value :  1.10013e-05
 Reference value :  1.10027e-05
 Reference value :  1.10041e-05
 Reference value :  1.10056e-05
 Reference value :  1.10075e-05
 Reference value :  1.10095e-05
 Reference value :  1.10128e-05
 Reference value :  1.10283e-05
 Reference value :  1.11148e-05
 Reference value :  1.12501e-05
 Reference value :  1.12502e-05
 Reference value :  1.12503e-05
 Reference value :  1.12507e-05
 Reference value :  1.12515e-05
 Reference value :  1.12520e-05
 Reference value :  1.12533e-05
 Reference value :  1.12546e-05
 Reference value :  1.12569e-05
 Reference value :  1.12599e-05
 Reference value :  1.12690e-05
 Reference value :  1.13582e-05
 Reference value :  1.15000e-05
 Reference value :  1.15001e-05
 Reference value :  1.15003e-05
 Reference value :  1.15013e-05
 Reference value :  1.15022e-05
 Reference value :  1.15040e-05
 Reference value :  1.15046e-05
 Reference value :  1.15058e-05
 Reference value :  1.15071e-05
 Reference value :  1.15090e-05
 Reference value :  1.15115e-05
 Reference value :  1.15138e-05
 Reference value :  1.15163e-05
 Reference value :  1.15185e-05
 Reference value :  1.15211e-05
 Reference value :  1.15277e-05
 Reference value :  1.15528e-05
 Reference value :  1.16006e-05
 Reference value :  1.16134e-05
 Reference value :  1.16187e-05
 Reference value :  1.16294e-05
 Reference value :  1.16541e-05
 Reference value :  1.17271e-05
 Reference value :  1.17501e-05
 Reference value :  1.17502e-05
 Reference value :  1.17503e-05
 Reference value :  1.17511e-05
 Reference value :  1.17520e-05
 Reference value :  1.17533e-05
 Reference value :  1.17546e-05
 Reference value :  1.17560e-05
 Reference value :  1.17577e-05
 Reference value :  1.17650e-05
 Reference value :  1.18303e-05
 Reference value :  1.19667e-05
 Reference value :  1.20000e-05
 Reference value :  1.20001e-05
 Reference value :  1.20002e-05
 Reference value :  1.20009e-05
 Reference value :  1.20018e-05
 Reference value :  1.20028e-05
 Reference value :  1.20040e-05
 Reference value :  1.20053e-05
 Reference value :  1.20073e-05
 Reference value :  1.20092e-05
 Reference value :  1.20112e-05
 Reference value :  1.20136e-05
 Reference value :  1.20309e-05
 Reference value :  1.20697e-05
 Reference value :  1.20982e-05
 Reference value :  1.21947e-05
 Reference value :  1.22501e-05
 Reference value :  1.22502e-05
 Reference value :  1.22504e-05
 Reference value :  1.22515e-05
 Reference value :  1.22525e-05
 Reference value :  1.22546e-05
 Reference value :  1.22569e-05
 Reference value :  1.22588e-05
 Reference value :  1.22632e-05
 Reference value :  1.22836e-05
 Reference value :  1.24161e-05
 Reference value :  1.25001e-05
 Reference value :  1.25002e-05
 Reference value :  1.25005e-05
 Reference value :  1.25013e-05
 Reference value :  1.25022e-05
 Reference value :  1.25034e-05
 Reference value :  1.25046e-05
 Reference value :  1.25058e-05
 Reference value :  1.25071e-05
 Reference value :  1.25090e-05
 Reference value :  1.25115e-05
 Reference value :  1.25138e-05
 Reference value :  1.25161e-05
 Reference value :  1.25184e-05
 Reference value :  1.25210e-05
 Reference value :  1.25235e-05
 Reference value :  1.25261e-05
 Reference value :  1.25374e-05
 Reference value :  1.25530e-05
 Reference value :  1.26017e-05
 Reference value :  1.27501e-05
 Reference value :  1.27501e-05
 Reference value :  1.27502e-05
 Reference value :  1.27503e-05
 Reference value :  1.27511e-05
 Reference value :  1.27520e-05
 Reference value :  1.27533e-05
 Reference value :  1.27547e-05
 Reference value :  1.27560e-05
 Reference value :  1.27578e-05
 Reference value :  1.27652e-05
 Reference value :  1.28303e-05
 Reference value :  1.30000e-05
 Reference value :  1.30001e-05
 Reference value :  1.30001e-05
 Reference value :  1.30003e-05
 Reference value :  1.30013e-05
 Reference value :  1.30022e-05
 Reference value :  1.30040e-05
 Reference value :  1.30053e-05
 Reference value :  1.30073e-05
 Reference value :  1.30093e-05
 Reference value :  1.30124e-05
 Reference value :  1.30309e-05
 Reference value :  1.32501e-05
 Reference value :  1.32502e-05
 Reference value :  1.32503e-05
 Reference value :  1.32511e-05
 Reference value :  1.32520e-05
 Reference value :  1.32541e-05
 Reference value :  1.32554e-05
 Reference value :  1.32570e-05
 Reference value :  1.32620e-05
 Reference value :  1.32821e-05
 Reference value :  1.34779e-05
 Reference value :  1.35000e-05
 Reference value :  1.35001e-05
 Reference value :  1.35002e-05
 Reference value :  1.35009e-05
 Reference value :  1.35018e-05
 Reference value :  1.35022e-05
 Reference value :  1.35034e-05
 Reference value :  1.35046e-05
 Reference value :  1.35058e-05
 Reference value :  1.35071e-05
 Reference value :  1.35126e-05
 Reference value :  1.35140e-05
 Reference value :  1.35167e-05
 Reference value :  1.35191e-05
 Reference value :  1.35216e-05
 Reference value :  1.35286e-05
 Reference value :  1.35578e-05
 Reference value :  1.36283e-05
 Reference value :  1.37056e-05
 Reference value :  1.37501e-05
 Reference value :  1.37502e-05
 Reference value :  1.37507e-05
 Reference value :  1.37515e-05
 Reference value :  1.37525e-05
 Reference value :  1.37540e-05
 Reference value :  1.37546e-05
 Reference value :  1.37569e-05
 Reference value :  1.37617e-05
 Reference value :  1.37983e-05
 Reference value :  1.39977e-05
 Reference value :  1.40000e-05
 Reference value :  1.40001e-05
 Reference value :  1.40001e-05
 Reference value :  1.40003e-05
 Reference value :  1.40013e-05
 Reference value :  1.40022e-05
 Reference value :  1.40040e-05
 Reference value :  1.40053e-05
 Reference value :  1.40073e-05
 Reference value :  1.40093e-05
 Reference value :  1.40112e-05
 Reference value :  1.40162e-05
 Reference value :  1.40892e-05
 Reference value :  1.42501e-05
 Reference value :  1.42502e-05
 Reference value :  1.42507e-05
 Reference value :  1.42520e-05
 Reference value :  1.42541e-05
 Reference value :  1.42554e-05
 Reference value :  1.42570e-05
 Reference value :  1.42619e-05
 Reference value :  1.42991e-05
 Reference value :  1.45000e-05
 Reference value :  1.45001e-05
 Reference value :  1.45002e-05
 Reference value :  1.45005e-05
 Reference value :  1.45013e-05
 Reference value :  1.45022e-05
 Reference value :  1.45040e-05
 Reference value :  1.45052e-05
 Reference value :  1.45064e-05
 Reference value :  1.45090e-05
 Reference value :  1.45140e-05
 Reference value :  1.45167e-05
 Reference value :  1.45203e-05
 Reference value :  1.45255e-05
 Reference value :  1.45527e-05
 Reference value :  1.46945e-05
 Reference value :  1.47502e-05
 Reference value :  1.47503e-05
 Reference value :  1.47507e-05
 Reference value :  1.47520e-05
 Reference value :  1.47541e-05
 Reference value :  1.47554e-05
 Reference value :  1.47569e-05
 Reference value :  1.47652e-05
 Reference value :  1.48303e-05
 Reference value :  1.50000e-05
 Reference value :  1.50001e-05
 Reference value :  1.50002e-05
 Reference value :  1.50009e-05
 Reference value :  1.50018e-05
 Reference value :  1.50028e-05
 Reference value :  1.50046e-05
 Reference value :  1.50063e-05
 Reference value :  1.50083e-05
 Reference value :  1.50102e-05
 Reference value :  1.50124e-05
 Reference value :  1.50212e-05
 Reference value :  1.51669e-05
 Reference value :  1.52501e-05
 Reference value :  1.52502e-05
 Reference value :  1.52503e-05
 Reference value :  1.52511e-05
 Reference value :  1.52520e-05
 Reference value :  1.52541e-05
 Reference value :  1.52554e-05
 Reference value :  1.52570e-05
 Reference value :  1.52619e-05
 Reference value :  1.52817e-05
 Reference value :  1.54769e-05
 Reference value :  1.55004e-05
 Reference value :  1.55016e-05
 Reference value :  1.55025e-05
 Reference value :  1.55043e-05
 Reference value :  1.55058e-05
 Reference value :  1.55072e-05
 Reference value :  1.55109e-05
 Reference value :  1.55141e-05
 Reference value :  1.55165e-05
 Reference value :  1.55189e-05
 Reference value :  1.55214e-05
 Reference value :  1.55250e-05
 Reference value :  1.55407e-05
 Reference value :  1.56206e-05
 Reference value :  1.57501e-05
 Reference value :  1.57502e-05
 Reference value :  1.57503e-05
 Reference value :  1.57511e-05
 Reference value :  1.57520e-05
 Reference value :  1.57541e-05
 Reference value :  1.57554e-05
 Reference value :  1.57569e-05
 Reference value :  1.57652e-05
 Reference value :  1.58302e-05
 Reference value :  1.60000e-05
 Reference value :  1.60001e-05
 Reference value :  1.60002e-05
 Reference value :  1.60005e-05
 Reference value :  1.60013e-05
 Reference value :  1.60022e-05
 Reference value :  1.60040e-05
 Reference value :  1.60053e-05
 Reference value :  1.60073e-05
 Reference value :  1.60093e-05
 Reference value :  1.60102e-05
 Reference value :  1.60124e-05
 Reference value :  1.60212e-05
 Reference value :  1.60892e-05
 Reference value :  1.62501e-05
 Reference value :  1.62502e-05
 Reference value :  1.62503e-05
 Reference value :  1.62511e-05
 Reference value :  1.62520e-05
 Reference value :  1.62540e-05
 Reference value :  1.62554e-05
 Reference value :  1.62569e-05
 Reference value :  1.62619e-05
 Reference value :  1.62817e-05
 Reference value :  1.64772e-05
 Reference value :  1.65001e-05
 Reference value :  1.65001e-05
 Reference value :  1.65009e-05
 Reference value :  1.65022e-05
 Reference value :  1.65040e-05
 Reference value :  1.65052e-05
 Reference value :  1.65058e-05
 Reference value :  1.65071e-05
 Reference value :  1.65100e-05
 Reference value :  1.65145e-05
 Reference value :  1.65334e-05
 Reference value :  1.66584e-05
 Reference value :  1.67501e-05
 Reference value :  1.67502e-05
 Reference value :  1.67503e-05
 Reference value :  1.67511e-05
 Reference value :  1.67520e-05
 Reference value :  1.67542e-05
 Reference value :  1.67572e-05
 Reference value :  1.67628e-05
 Reference value :  1.67939e-05
 Reference value :  1.68422e-05
 Reference value :  1.68857e-05
 Reference value :  1.69098e-05
 Reference value :  1.70001e-05
 Reference value :  1.70001e-05
 Reference value :  1.70008e-05
 Reference value :  1.70025e-05
 Reference value :  1.70037e-05
 Reference value :  1.70051e-05
 Reference value :  1.70056e-05
 Reference value :  1.70070e-05
 Reference value :  1.70210e-05
 Reference value :  1.70278e-05
 Reference value :  1.70329e-05
 Reference value :  1.70367e-05
 Reference value :  1.70418e-05
 Reference value :  1.70452e-05
 Reference value :  1.70494e-05
 Reference value :  1.70515e-05
 Reference value :  1.70560e-05
 Reference value :  1.70622e-05
 Reference value :  1.70820e-05
 Reference value :  1.71581e-05
 Reference value :  1.72501e-05
 Reference value :  1.72502e-05
 Reference value :  1.72507e-05
 Reference value :  1.72520e-05
 Reference value :  1.72540e-05
 Reference value :  1.72553e-05
 Reference value :  1.72578e-05
 Reference value :  1.72708e-05
 Reference value :  1.73847e-05
 Reference value :  1.74335e-05
 Reference value :  1.74800e-05
 Reference value :  1.75000e-05
 Reference value :  1.75001e-05
 Reference value :  1.75003e-05
 Reference value :  1.75013e-05
 Reference value :  1.75022e-05
 Reference value :  1.75041e-05
 Reference value :  1.75081e-05
 Reference value :  1.75113e-05
 Reference value :  1.75144e-05
 Reference value :  1.75176e-05
 Reference value :  1.75259e-05
 Reference value :  1.76688e-05
 Reference value :  1.77502e-05
 Reference value :  1.77507e-05
 Reference value :  1.77526e-05
 Reference value :  1.77547e-05
 Reference value :  1.77570e-05
 Reference value :  1.77599e-05
 Reference value :  1.77737e-05
 Reference value :  1.78657e-05
 Reference value :  1.80015e-05
 Reference value :  1.80059e-05
 Reference value :  1.80084e-05
 Reference value :  1.80119e-05
 Reference value :  1.80155e-05
 Reference value :  1.80190e-05
 Reference value :  1.80254e-05
 Reference value :  1.81448e-05
 Reference value :  1.81956e-05
 Reference value :  1.82501e-05
 Reference value :  1.82502e-05
 Reference value :  1.82507e-05
 Reference value :  1.82520e-05
 Reference value :  1.82540e-05
 Reference value :  1.82560e-05
 Reference value :  1.82616e-05
 Reference value :  1.85000e-05
 Reference value :  1.85001e-05
 Reference value :  1.85005e-05
 Reference value :  1.85022e-05
 Reference value :  1.85046e-05
 Reference value :  1.85083e-05
 Reference value :  1.85112e-05
 Reference value :  1.85309e-05
 Reference value :  1.87501e-05
 Reference value :  1.87502e-05
 Reference value :  1.87511e-05
 Reference value :  1.87526e-05
 Reference value :  1.87547e-05
 Reference value :  1.87570e-05
 Reference value :  1.87715e-05
 Reference value :  1.88847e-05
 Reference value :  1.90000e-05
 Reference value :  1.90001e-05
 Reference value :  1.90005e-05
 Reference value :  1.90018e-05
 Reference value :  1.90034e-05
 Reference value :  1.90046e-05
 Reference value :  1.90058e-05
 Reference value :  1.90090e-05
 Reference value :  1.90140e-05
 Reference value :  1.90167e-05
 Reference value :  1.90191e-05
 Reference value :  1.90287e-05
 Reference value :  1.90478e-05
 Reference value :  1.90628e-05
 Reference value :  1.90733e-05
 Reference value :  1.90916e-05
 Reference value :  1.91371e-05
 Reference value :  1.92501e-05
 Reference value :  1.92502e-05
 Reference value :  1.92504e-05
 Reference value :  1.92515e-05
 Reference value :  1.92525e-05
 Reference value :  1.92546e-05
 Reference value :  1.92569e-05
 Reference value :  1.92651e-05
 Reference value :  1.93862e-05
 Reference value :  1.95001e-05
 Reference value :  1.95001e-05
 Reference value :  1.95002e-05
 Reference value :  1.95009e-05
 Reference value :  1.95019e-05
 Reference value :  1.95029e-05
 Reference value :  1.95042e-05
 Reference value :  1.95067e-05
 Reference value :  1.95075e-05
 Reference value :  1.95094e-05
 Reference value :  1.95126e-05
 Reference value :  1.95285e-05
 Reference value :  1.97306e-05
 Reference value :  1.97501e-05
 Reference value :  1.97502e-05
 Reference value :  1.97503e-05
 Reference value :  1.97511e-05
 Reference value :  1.97520e-05
 Reference value :  1.97540e-05
 Reference value :  1.97553e-05
 Reference value :  1.97569e-05
 Reference value :  1.97599e-05
 Reference value :  1.97655e-05
 Reference value :  1.97839e-05
 Reference value :  1.98586e-05
 Reference value :  2.00000e-05
 Reference value :  2.00001e-05
 Reference value :  2.00002e-05
 Reference value :  2.00009e-05
 Reference value :  2.00018e-05
 Reference value :  2.00022e-05
 Reference value :  2.00040e-05
 Reference value :  2.00046e-05
 Reference value :  2.00058e-05
 Reference value :  2.00064e-05
 Reference value :  2.00090e-05
 Reference value :  2.00115e-05
 Reference value :  2.00138e-05
 Reference value :  2.00161e-05
 Reference value :  2.00184e-05
 Reference value :  2.00222e-05
 Reference value :  2.00311e-05
 Reference value :  2.00675e-05
 Reference value :  2.01035e-05
 Reference value :  2.01212e-05
 Reference value :  2.01332e-05
 Reference value :  2.01549e-05
 Reference value :  2.02020e-05
 Reference value :  2.02501e-05
 Reference value :  2.02503e-05
 Reference value :  2.02511e-05
 Reference value :  2.02520e-05
 Reference value :  2.02541e-05
 Reference value :  2.02553e-05
 Reference value :  2.02578e-05
 Reference value :  2.02709e-05
 Reference value :  2.03070e-05
 Reference value :  2.03396e-05
 Reference value :  2.03707e-05
 Reference value :  2.05000e-05
 Reference value :  2.05008e-05
 Reference value :  2.05034e-05
 Reference value :  2.05049e-05
 Reference value :  2.05069e-05
 Reference value :  2.05088e-05
 Reference value :  2.05110e-05
 Reference value :  2.05148e-05
 Reference value :  2.05377e-05
 Reference value :  2.07400e-05
 Reference value :  2.07501e-05
 Reference value :  2.07502e-05
 Reference value :  2.07503e-05
 Reference value :  2.07507e-05
 Reference value :  2.07515e-05
 Reference value :  2.07525e-05
 Reference value :  2.07540e-05
 Reference value :  2.07553e-05
 Reference value :  2.07570e-05
 Reference value :  2.07588e-05
 Reference value :  2.07632e-05
 Reference value :  2.07838e-05
 Reference value :  2.09164e-05
 Reference value :  2.10000e-05
 Reference value :  2.10001e-05
 Reference value :  2.10002e-05
 Reference value :  2.10005e-05
 Reference value :  2.10013e-05
 Reference value :  2.10022e-05
 Reference value :  2.10034e-05
 Reference value :  2.10046e-05
 Reference value :  2.10058e-05
 Reference value :  2.10071e-05
 Reference value :  2.10090e-05
 Reference value :  2.10114e-05
 Reference value :  2.10138e-05
 Reference value :  2.10161e-05
 Reference value :  2.10184e-05
 Reference value :  2.10210e-05
 Reference value :  2.10271e-05
 Reference value :  2.10344e-05
 Reference value :  2.10394e-05
 Reference value :  2.10439e-05
 Reference value :  2.10565e-05
 Reference value :  2.10738e-05
 Reference value :  2.11611e-05
 Reference value :  2.12501e-05
 Reference value :  2.12502e-05
 Reference value :  2.12504e-05
 Reference value :  2.12515e-05
 Reference value :  2.12525e-05
 Reference value :  2.12540e-05
 Reference value :  2.12553e-05
 Reference value :  2.12569e-05
 Reference value :  2.12617e-05
 Reference value :  2.12983e-05
 Reference value :  2.14984e-05
 Reference value :  2.15001e-05
 Reference value :  2.15002e-05
 Reference value :  2.15005e-05
 Reference value :  2.15013e-05
 Reference value :  2.15022e-05
 Reference value :  2.15040e-05
 Reference value :  2.15046e-05
 Reference value :  2.15063e-05
 Reference value :  2.15083e-05
 Reference value :  2.15102e-05
 Reference value :  2.15124e-05
 Reference value :  2.15309e-05
 Reference value :  2.17501e-05
 Reference value :  2.17502e-05
 Reference value :  2.17502e-05
 Reference value :  2.17507e-05
 Reference value :  2.17520e-05
 Reference value :  2.17541e-05
 Reference value :  2.17554e-05
 Reference value :  2.17579e-05
 Reference value :  2.17655e-05
 Reference value :  2.17998e-05
 Reference value :  2.20000e-05
 Reference value :  2.20004e-05
 Reference value :  2.20016e-05
 Reference value :  2.20024e-05
 Reference value :  2.20035e-05
 Reference value :  2.20047e-05
 Reference value :  2.20059e-05
 Reference value :  2.20080e-05
 Reference value :  2.20126e-05
 Reference value :  2.20142e-05
 Reference value :  2.20166e-05
 Reference value :  2.20189e-05
 Reference value :  2.20231e-05
 Reference value :  2.20425e-05
 Reference value :  2.20707e-05
 Reference value :  2.21190e-05
 Reference value :  2.22501e-05
 Reference value :  2.22502e-05
 Reference value :  2.22503e-05
 Reference value :  2.22507e-05
 Reference value :  2.22520e-05
 Reference value :  2.22540e-05
 Reference value :  2.22553e-05
 Reference value :  2.22568e-05
 Reference value :  2.22648e-05
 Reference value :  2.23299e-05
 Reference value :  2.25000e-05
 Reference value :  2.25001e-05
 Reference value :  2.25003e-05
 Reference value :  2.25013e-05
 Reference value :  2.25022e-05
 Reference value :  2.25040e-05
 Reference value :  2.25053e-05
 Reference value :  2.25073e-05
 Reference value :  2.25093e-05
 Reference value :  2.25112e-05
 Reference value :  2.25162e-05
 Reference value :  2.25892e-05
 Reference value :  2.27501e-05
 Reference value :  2.27502e-05
 Reference value :  2.27503e-05
 Reference value :  2.27507e-05
 Reference value :  2.27515e-05
 Reference value :  2.27526e-05
 Reference value :  2.27541e-05
 Reference value :  2.27554e-05
 Reference value :  2.27570e-05
 Reference value :  2.27596e-05
 Reference value :  2.27712e-05
 Reference value :  2.28301e-05
 Reference value :  2.29767e-05
 Reference value :  2.30004e-05
 Reference value :  2.30016e-05
 Reference value :  2.30025e-05
 Reference value :  2.30037e-05
 Reference value :  2.30050e-05
 Reference value :  2.30065e-05
 Reference value :  2.30094e-05
 Reference value :  2.30109e-05
 Reference value :  2.30143e-05
 Reference value :  2.30167e-05
 Reference value :  2.30191e-05
 Reference value :  2.30216e-05
 Reference value :  2.30289e-05
 Reference value :  2.30537e-05
 Reference value :  2.30948e-05
 Reference value :  2.31258e-05
 Reference value :  2.31556e-05
 Reference value :  2.32501e-05
 Reference value :  2.32502e-05
 Reference value :  2.32503e-05
 Reference value :  2.32507e-05
 Reference value :  2.32520e-05
 Reference value :  2.32540e-05
 Reference value :  2.32553e-05
 Reference value :  2.32568e-05
 Reference value :  2.32616e-05
 Reference value :  2.32980e-05
 Reference value :  2.34789e-05
 Reference value :  2.35000e-05
 Reference value :  2.35001e-05
 Reference value :  2.35002e-05
 Reference value :  2.35009e-05
 Reference value :  2.35018e-05
 Reference value :  2.35027e-05
 Reference value :  2.35049e-05
 Reference value :  2.35075e-05
 Reference value :  2.35095e-05
 Reference value :  2.35128e-05
 Reference value :  2.35421e-05
 Reference value :  2.37501e-05
 Reference value :  2.37502e-05
 Reference value :  2.37503e-05
 Reference value :  2.37511e-05
 Reference value :  2.37520e-05
 Reference value :  2.37540e-05
 Reference value :  2.37560e-05
 Reference value :  2.37589e-05
 Reference value :  2.37753e-05
 Reference value :  2.40000e-05
 Reference value :  2.40001e-05
 Reference value :  2.40009e-05
 Reference value :  2.40018e-05
 Reference value :  2.40028e-05
 Reference value :  2.40046e-05
 Reference value :  2.40058e-05
 Reference value :  2.40071e-05
 Reference value :  2.40115e-05
 Reference value :  2.40138e-05
 Reference value :  2.40162e-05
 Reference value :  2.40198e-05
 Reference value :  2.40228e-05
 Reference value :  2.40276e-05
 Reference value :  2.40408e-05
 Reference value :  2.41030e-05
 Reference value :  2.42501e-05
 Reference value :  2.42502e-05
 Reference value :  2.42507e-05
 Reference value :  2.42520e-05
 Reference value :  2.42540e-05
 Reference value :  2.42560e-05
 Reference value :  2.42595e-05
 Reference value :  2.42983e-05
 Reference value :  2.45000e-05
 Reference value :  2.45001e-05
 Reference value :  2.45001e-05
 Reference value :  2.45003e-05
 Reference value :  2.45013e-05
 Reference value :  2.45022e-05
 Reference value :  2.45040e-05
 Reference value :  2.45053e-05
 Reference value :  2.45073e-05
 Reference value :  2.45093e-05
 Reference value :  2.45112e-05
 Reference value :  2.45162e-05
 Reference value :  2.46667e-05
 Reference value :  2.47501e-05
 Reference value :  2.47502e-05
 Reference value :  2.47503e-05
 Reference value :  2.47511e-05
 Reference value :  2.47520e-05
 Reference value :  2.47533e-05
 Reference value :  2.47547e-05
 Reference value :  2.47561e-05
 Reference value :  2.47597e-05
 Reference value :  2.47821e-05
 Reference value :  2.49783e-05
 Reference value :  2.50001e-05
 Reference value :  2.50002e-05
 Reference value :  2.50013e-05
 Reference value :  2.50034e-05
 Reference value :  2.50052e-05
 Reference value :  2.50064e-05
 Reference value :  2.50100e-05
 Reference value :  2.50233e-05
 Reference value :  2.52501e-05
 Reference value :  2.52502e-05
 Reference value :  2.52504e-05
 Reference value :  2.52515e-05
 Reference value :  2.52525e-05
 Reference value :  2.52542e-05
 Reference value :  2.52585e-05
 Reference value :  2.52721e-05
 Reference value :  2.55000e-05
 Reference value :  2.55011e-05
 Reference value :  2.55046e-05
 Reference value :  2.55066e-05
 Reference value :  2.55110e-05
 Reference value :  2.55275e-05
 Reference value :  2.55366e-05
 Reference value :  2.55393e-05
 Reference value :  2.55433e-05
 Reference value :  2.55461e-05
 Reference value :  2.55518e-05
 Reference value :  2.55582e-05
 Reference value :  2.55709e-05
 Reference value :  2.56051e-05
 Reference value :  2.56908e-05
 Reference value :  2.57501e-05
 Reference value :  2.57502e-05
 Reference value :  2.57503e-05
 Reference value :  2.57511e-05
 Reference value :  2.57520e-05
 Reference value :  2.57540e-05
 Reference value :  2.57553e-05
 Reference value :  2.57568e-05
 Reference value :  2.57616e-05
 Reference value :  2.57981e-05
 Reference value :  2.59413e-05
 Reference value :  2.59875e-05
 Reference value :  2.60000e-05
 Reference value :  2.60001e-05
 Reference value :  2.60005e-05
 Reference value :  2.60013e-05
 Reference value :  2.60022e-05
 Reference value :  2.60041e-05
 Reference value :  2.60067e-05
 Reference value :  2.60113e-05
 Reference value :  2.60144e-05
 Reference value :  2.60176e-05
 Reference value :  2.60416e-05
 Reference value :  2.62501e-05
 Reference value :  2.62502e-05
 Reference value :  2.62504e-05
 Reference value :  2.62515e-05
 Reference value :  2.62526e-05
 Reference value :  2.62540e-05
 Reference value :  2.62554e-05
 Reference value :  2.62579e-05
 Reference value :  2.62612e-05
 Reference value :  2.62745e-05
 Reference value :  2.63444e-05
 Reference value :  2.65000e-05
 Reference value :  2.65001e-05
 Reference value :  2.65001e-05
 Reference value :  2.65002e-05
 Reference value :  2.65009e-05
 Reference value :  2.65018e-05
 Reference value :  2.65028e-05
 Reference value :  2.65040e-05
 Reference value :  2.65052e-05
 Reference value :  2.65064e-05
 Reference value :  2.65090e-05
 Reference value :  2.65115e-05
 Reference value :  2.65138e-05
 Reference value :  2.65161e-05
 Reference value :  2.65184e-05
 Reference value :  2.65208e-05
 Reference value :  2.65265e-05
 Reference value :  2.65494e-05
 Reference value :  2.66598e-05
 Reference value :  2.67089e-05
 Reference value :  2.67449e-05
 Reference value :  2.67501e-05
 Reference value :  2.67502e-05
 Reference value :  2.67503e-05
 Reference value :  2.67515e-05
 Reference value :  2.67526e-05
 Reference value :  2.67541e-05
 Reference value :  2.67553e-05
 Reference value :  2.67569e-05
 Reference value :  2.67618e-05
 Reference value :  2.67813e-05
 Reference value :  2.69885e-05
 Reference value :  2.70000e-05
 Reference value :  2.70001e-05
 Reference value :  2.70003e-05
 Reference value :  2.70013e-05
 Reference value :  2.70022e-05
 Reference value :  2.70034e-05
 Reference value :  2.70046e-05
 Reference value :  2.70063e-05
 Reference value :  2.70083e-05
 Reference value :  2.70102e-05
 Reference value :  2.70124e-05
 Reference value :  2.70212e-05
 Reference value :  2.70891e-05
 Reference value :  2.72501e-05
 Reference value :  2.72502e-05
 Reference value :  2.72503e-05
 Reference value :  2.72507e-05
 Reference value :  2.72515e-05
 Reference value :  2.72526e-05
 Reference value :  2.72541e-05
 Reference value :  2.72554e-05
 Reference value :  2.72570e-05
 Reference value :  2.72620e-05
 Reference value :  2.72998e-05
 Reference value :  2.75000e-05
 Reference value :  2.75001e-05
 Reference value :  2.75001e-05
 Reference value :  2.75003e-05
 Reference value :  2.75013e-05
 Reference value :  2.75022e-05
 Reference value :  2.75034e-05
 Reference value :  2.75046e-05
 Reference value :  2.75058e-05
 Reference value :  2.75071e-05
 Reference value :  2.75106e-05
 Reference value :  2.75140e-05
 Reference value :  2.75167e-05
 Reference value :  2.75191e-05
 Reference value :  2.75234e-05
 Reference value :  2.75399e-05
 Reference value :  2.75523e-05
 Reference value :  2.75637e-05
 Reference value :  2.75789e-05
 Reference value :  2.76124e-05
 Reference value :  2.77480e-05
 Reference value :  2.77501e-05
 Reference value :  2.77502e-05
 Reference value :  2.77504e-05
 Reference value :  2.77515e-05
 Reference value :  2.77526e-05
 Reference value :  2.77547e-05
 Reference value :  2.77571e-05
 Reference value :  2.77659e-05
 Reference value :  2.78879e-05
 Reference value :  2.80003e-05
 Reference value :  2.80013e-05
 Reference value :  2.80020e-05
 Reference value :  2.80038e-05
 Reference value :  2.80062e-05
 Reference value :  2.80092e-05
 Reference value :  2.80124e-05
 Reference value :  2.80287e-05
 Reference value :  2.82501e-05
 Reference value :  2.82502e-05
 Reference value :  2.82502e-05
 Reference value :  2.82504e-05
 Reference value :  2.82511e-05
 Reference value :  2.82520e-05
 Reference value :  2.82533e-05
 Reference value :  2.82547e-05
 Reference value :  2.82570e-05
 Reference value :  2.82599e-05
 Reference value :  2.82689e-05
 Reference value :  2.83536e-05
 Reference value :  2.85001e-05
 Reference value :  2.85003e-05
 Reference value :  2.85013e-05
 Reference value :  2.85022e-05
 Reference value :  2.85034e-05
 Reference value :  2.85046e-05
 Reference value :  2.85058e-05
 Reference value :  2.85071e-05
 Reference value :  2.85090e-05
 Reference value :  2.85115e-05
 Reference value :  2.85138e-05
 Reference value :  2.85161e-05
 Reference value :  2.85184e-05
 Reference value :  2.85208e-05
 Reference value :  2.85266e-05
 Reference value :  2.85512e-05
 Reference value :  2.86125e-05
 Reference value :  2.86318e-05
 Reference value :  2.86660e-05
 Reference value :  2.86909e-05
 Reference value :  2.87166e-05
 Reference value :  2.87368e-05
 Reference value :  2.87501e-05
 Reference value :  2.87502e-05
 Reference value :  2.87503e-05
 Reference value :  2.87511e-05
 Reference value :  2.87520e-05
 Reference value :  2.87533e-05
 Reference value :  2.87547e-05
 Reference value :  2.87570e-05
 Reference value :  2.87621e-05
 Reference value :  2.87823e-05
 Reference value :  2.88319e-05
 Reference value :  2.88757e-05
 Reference value :  2.90000e-05
 Reference value :  2.90008e-05
 Reference value :  2.90025e-05
 Reference value :  2.90034e-05
 Reference value :  2.90049e-05
 Reference value :  2.90068e-05
 Reference value :  2.90077e-05
 Reference value :  2.90098e-05
 Reference value :  2.90121e-05
 Reference value :  2.90149e-05
 Reference value :  2.90211e-05
 Reference value :  2.90859e-05
 Reference value :  2.92501e-05
 Reference value :  2.92501e-05
 Reference value :  2.92502e-05
 Reference value :  2.92503e-05
 Reference value :  2.92504e-05
 Reference value :  2.92511e-05
 Reference value :  2.92520e-05
 Reference value :  2.92533e-05
 Reference value :  2.92546e-05
 Reference value :  2.92570e-05
 Reference value :  2.92588e-05
 Reference value :  2.92612e-05
 Reference value :  2.92690e-05
 Reference value :  2.93212e-05
 Reference value :  2.95000e-05
 Reference value :  2.95001e-05
 Reference value :  2.95002e-05
 Reference value :  2.95009e-05
 Reference value :  2.95018e-05
 Reference value :  2.95028e-05
 Reference value :  2.95046e-05
 Reference value :  2.95058e-05
 Reference value :  2.95064e-05
 Reference value :  2.95080e-05
 Reference value :  2.95105e-05
 Reference value :  2.95115e-05
 Reference value :  2.95138e-05
 Reference value :  2.95162e-05
 Reference value :  2.95185e-05
 Reference value :  2.95211e-05
 Reference value :  2.95273e-05
 Reference value :  2.95307e-05
 Reference value :  2.95380e-05
 Reference value :  2.95407e-05
 Reference value :  2.95452e-05
 Reference value :  2.95558e-05
 Reference value :  2.95776e-05
 Reference value :  2.96248e-05
 Reference value :  2.96996e-05
 Reference value :  2.97501e-05
 Reference value :  2.97502e-05
 Reference value :  2.97503e-05
 Reference value :  2.97504e-05
 Reference value :  2.97511e-05
 Reference value :  2.97520e-05
 Reference value :  2.97533e-05
 Reference value :  2.97546e-05
 Reference value :  2.97560e-05
 Reference value :  2.97569e-05
 Reference value :  2.97595e-05
 Reference value :  2.97705e-05
 Reference value :  2.98304e-05
 Reference value :  3.00000e-05
 Reference value :  3.00000e-05
 Reference value :  3.00001e-05
 Reference value :  3.00002e-05
 Reference value :  3.00003e-05
 Reference value :  3.00009e-05
 Reference value :  3.00013e-05
 Reference value :  3.00022e-05
 Reference value :  3.00040e-05
 Reference value :  3.00053e-05
 Reference value :  3.00073e-05
 Reference value :  3.00093e-05
 Reference value :  3.00112e-05
 Reference value :  3.00136e-05
 Reference value :  3.00309e-05
 Reference value :  3.01666e-05
 Reference value :  3.02501e-05
 Reference value :  3.02502e-05
 Reference value :  3.02503e-05
 Reference value :  3.02504e-05
 Reference value :  3.02511e-05
 Reference value :  3.02520e-05
 Reference value :  3.02541e-05
 Reference value :  3.02547e-05
 Reference value :  3.02561e-05
 Reference value :  3.02579e-05
 Reference value :  3.02715e-05
 Reference value :  3.03847e-05
 Reference value :  3.05004e-05
 Reference value :  3.05016e-05
 Reference value :  3.05024e-05
 Reference value :  3.05035e-05
 Reference value :  3.05047e-05
 Reference value :  3.05059e-05
 Reference value :  3.05080e-05
 Reference value :  3.05109e-05
 Reference value :  3.05142e-05
 Reference value :  3.05154e-05
 Reference value :  3.05178e-05
 Reference value :  3.05201e-05
 Reference value :  3.05250e-05
 Reference value :  3.05424e-05
 Reference value :  3.05635e-05
 Reference value :  3.05712e-05
 Reference value :  3.05908e-05
 Reference value :  3.06114e-05
 Reference value :  3.06749e-05
 Reference value :  3.07190e-05
 Reference value :  3.07501e-05
 Reference value :  3.07501e-05
 Reference value :  3.07502e-05
 Reference value :  3.07503e-05
 Reference value :  3.07504e-05
 Reference value :  3.07510e-05
 Reference value :  3.07520e-05
 Reference value :  3.07532e-05
 Reference value :  3.07540e-05
 Reference value :  3.07546e-05
 Reference value :  3.07559e-05
 Reference value :  3.07577e-05
 Reference value :  3.07648e-05
 Reference value :  3.07803e-05
 Reference value :  3.08863e-05
 Reference value :  3.10000e-05
 Reference value :  3.10001e-05
 Reference value :  3.10002e-05
 Reference value :  3.10003e-05
 Reference value :  3.10009e-05
 Reference value :  3.10013e-05
 Reference value :  3.10022e-05
 Reference value :  3.10034e-05
 Reference value :  3.10046e-05
 Reference value :  3.10053e-05
 Reference value :  3.10063e-05
 Reference value :  3.10073e-05
 Reference value :  3.10083e-05
 Reference value :  3.10093e-05
 Reference value :  3.10102e-05
 Reference value :  3.10124e-05
 Reference value :  3.10162e-05
 Reference value :  3.10310e-05
 Reference value :  3.10891e-05
 Reference value :  3.12501e-05
 Reference value :  3.12501e-05
 Reference value :  3.12502e-05
 Reference value :  3.12503e-05
 Reference value :  3.12507e-05
 Reference value :  3.12515e-05
 Reference value :  3.12526e-05
 Reference value :  3.12541e-05
 Reference value :  3.12554e-05
 Reference value :  3.12569e-05
 Reference value :  3.12596e-05
 Reference value :  3.12712e-05
 Reference value :  3.13301e-05
 Reference value :  3.15000e-05
 Reference value :  3.15000e-05
 Reference value :  3.15001e-05
 Reference value :  3.15001e-05
 Reference value :  3.15002e-05
 Reference value :  3.15005e-05
 Reference value :  3.15013e-05
 Reference value :  3.15022e-05
 Reference value :  3.15034e-05
 Reference value :  3.15046e-05
 Reference value :  3.15058e-05
 Reference value :  3.15064e-05
 Reference value :  3.15090e-05
 Reference value :  3.15126e-05
 Reference value :  3.15140e-05
 Reference value :  3.15154e-05
 Reference value :  3.15180e-05
 Reference value :  3.15203e-05
 Reference value :  3.15235e-05
 Reference value :  3.15328e-05
 Reference value :  3.15434e-05
 Reference value :  3.15477e-05
 Reference value :  3.15564e-05
 Reference value :  3.15664e-05
 Reference value :  3.15861e-05
 Reference value :  3.16572e-05
 Reference value :  3.17501e-05
 Reference value :  3.17501e-05
 Reference value :  3.17502e-05
 Reference value :  3.17503e-05
 Reference value :  3.17507e-05
 Reference value :  3.17515e-05
 Reference value :  3.17520e-05
 Reference value :  3.17533e-05
 Reference value :  3.17546e-05
 Reference value :  3.17560e-05
 Reference value :  3.17579e-05
 Reference value :  3.17652e-05
 Reference value :  3.17992e-05
 Reference value :  3.19966e-05
 Reference value :  3.20000e-05
 Reference value :  3.20001e-05
 Reference value :  3.20001e-05
 Reference value :  3.20003e-05
 Reference value :  3.20009e-05
 Reference value :  3.20013e-05
 Reference value :  3.20022e-05
 Reference value :  3.20033e-05
 Reference value :  3.20049e-05
 Reference value :  3.20067e-05
 Reference value :  3.20075e-05
 Reference value :  3.20095e-05
 Reference value :  3.20128e-05
 Reference value :  3.20207e-05
 Reference value :  3.21148e-05
 Reference value :  3.22501e-05
 Reference value :  3.22502e-05
 Reference value :  3.22503e-05
 Reference value :  3.22511e-05
 Reference value :  3.22520e-05
 Reference value :  3.22540e-05
 Reference value :  3.22553e-05
 Reference value :  3.22569e-05
 Reference value :  3.22599e-05
 Reference value :  3.22655e-05
 Reference value :  3.22987e-05
 Reference value :  3.25000e-05
 Reference value :  3.25001e-05
 Reference value :  3.25001e-05
 Reference value :  3.25003e-05
 Reference value :  3.25013e-05
 Reference value :  3.25022e-05
 Reference value :  3.25040e-05
 Reference value :  3.25046e-05
 Reference value :  3.25058e-05
 Reference value :  3.25071e-05
 Reference value :  3.25105e-05
 Reference value :  3.25115e-05
 Reference value :  3.25138e-05
 Reference value :  3.25164e-05
 Reference value :  3.25187e-05
 Reference value :  3.25212e-05
 Reference value :  3.25278e-05
 Reference value :  3.25543e-05
 Reference value :  3.26694e-05
 Reference value :  3.27501e-05
 Reference value :  3.27502e-05
 Reference value :  3.27503e-05
 Reference value :  3.27511e-05
 Reference value :  3.27520e-05
 Reference value :  3.27540e-05
 Reference value :  3.27553e-05
 Reference value :  3.27568e-05
 Reference value :  3.27616e-05
 Reference value :  3.27810e-05
 Reference value :  3.28868e-05
 Reference value :  3.30000e-05
 Reference value :  3.30001e-05
 Reference value :  3.30002e-05
 Reference value :  3.30009e-05
 Reference value :  3.30018e-05
 Reference value :  3.30033e-05
 Reference value :  3.30056e-05
 Reference value :  3.30075e-05
 Reference value :  3.30095e-05
 Reference value :  3.30128e-05
 Reference value :  3.30283e-05
 Reference value :  3.32111e-05
 Reference value :  3.32501e-05
 Reference value :  3.32502e-05
 Reference value :  3.32504e-05
 Reference value :  3.32510e-05
 Reference value :  3.32520e-05
 Reference value :  3.32533e-05
 Reference value :  3.32546e-05
 Reference value :  3.32560e-05
 Reference value :  3.32569e-05
 Reference value :  3.32599e-05
 Reference value :  3.32690e-05
 Reference value :  3.33211e-05
 Reference value :  3.35013e-05
 Reference value :  3.35053e-05
 Reference value :  3.35077e-05
 Reference value :  3.35097e-05
 Reference value :  3.35118e-05
 Reference value :  3.35160e-05
 Reference value :  3.35210e-05
 Reference value :  3.35459e-05
 Reference value :  3.35805e-05
 Reference value :  3.36116e-05
 Reference value :  3.36454e-05
 Reference value :  3.37427e-05
 Reference value :  3.37501e-05
 Reference value :  3.37502e-05
 Reference value :  3.37503e-05
 Reference value :  3.37511e-05
 Reference value :  3.37520e-05
 Reference value :  3.37533e-05
 Reference value :  3.37549e-05
 Reference value :  3.37582e-05
 Reference value :  3.37656e-05
 Reference value :  3.37918e-05
 Reference value :  3.40000e-05
 Reference value :  3.40001e-05
 Reference value :  3.40002e-05
 Reference value :  3.40006e-05
 Reference value :  3.40015e-05
 Reference value :  3.40026e-05
 Reference value :  3.40037e-05
 Reference value :  3.40051e-05
 Reference value :  3.40057e-05
 Reference value :  3.40070e-05
 Reference value :  3.40112e-05
 Reference value :  3.40221e-05
 Reference value :  3.40266e-05
 Reference value :  3.40326e-05
 Reference value :  3.40347e-05
 Reference value :  3.40385e-05
 Reference value :  3.40413e-05
 Reference value :  3.40440e-05
 Reference value :  3.40472e-05
 Reference value :  3.40486e-05
 Reference value :  3.40509e-05
 Reference value :  3.40586e-05
 Reference value :  3.40660e-05
 Reference value :  3.40751e-05
 Reference value :  3.41110e-05
 Reference value :  3.42174e-05
 Reference value :  3.42501e-05
 Reference value :  3.42502e-05
 Reference value :  3.42502e-05
 Reference value :  3.42503e-05
 Reference value :  3.42507e-05
 Reference value :  3.42515e-05
 Reference value :  3.42520e-05
 Reference value :  3.42533e-05
 Reference value :  3.42547e-05
 Reference value :  3.42560e-05
 Reference value :  3.42570e-05
 Reference value :  3.42597e-05
 Reference value :  3.42654e-05
 Reference value :  3.42996e-05
 Reference value :  3.43844e-05
 Reference value :  3.44351e-05
 Reference value :  3.44793e-05
 Reference value :  3.45000e-05
 Reference value :  3.45000e-05
 Reference value :  3.45001e-05
 Reference value :  3.45001e-05
 Reference value :  3.45002e-05
 Reference value :  3.45005e-05
 Reference value :  3.45013e-05
 Reference value :  3.45022e-05
 Reference value :  3.45033e-05
 Reference value :  3.45049e-05
 Reference value :  3.45068e-05
 Reference value :  3.45100e-05
 Reference value :  3.45113e-05
 Reference value :  3.45128e-05
 Reference value :  3.45144e-05
 Reference value :  3.45159e-05
 Reference value :  3.45196e-05
 Reference value :  3.45256e-05
 Reference value :  3.45412e-05
 Reference value :  3.45950e-05
 Reference value :  3.47501e-05
 Reference value :  3.47501e-05
 Reference value :  3.47502e-05
 Reference value :  3.47503e-05
 Reference value :  3.47504e-05
 Reference value :  3.47511e-05
 Reference value :  3.47520e-05
 Reference value :  3.47533e-05
 Reference value :  3.47540e-05
 Reference value :  3.47547e-05
 Reference value :  3.47561e-05
 Reference value :  3.47569e-05
 Reference value :  3.47587e-05
 Reference value :  3.47610e-05
 Reference value :  3.47651e-05
 Reference value :  3.47806e-05
 Reference value :  3.48321e-05
 Reference value :  3.50000e-05
 Reference value :  3.50000e-05
 Reference value :  3.50001e-05
 Reference value :  3.50002e-05
 Reference value :  3.50005e-05
 Reference value :  3.50013e-05
 Reference value :  3.50022e-05
 Reference value :  3.50034e-05
 Reference value :  3.50046e-05
 Reference value :  3.50058e-05
 Reference value :  3.50064e-05
 Reference value :  3.50090e-05
 Reference value :  3.50114e-05
 Reference value :  3.50138e-05
 Reference value :  3.50160e-05
 Reference value :  3.50182e-05
 Reference value :  3.50219e-05
 Reference value :  3.50297e-05
 Reference value :  3.50868e-05
 Reference value :  3.51960e-05
 Reference value :  3.52501e-05
 Reference value :  3.52501e-05
 Reference value :  3.52502e-05
 Reference value :  3.52503e-05
 Reference value :  3.52507e-05
 Reference value :  3.52515e-05
 Reference value :  3.52520e-05
 Reference value :  3.52533e-05
 Reference value :  3.52546e-05
 Reference value :  3.52560e-05
 Reference value :  3.52568e-05
 Reference value :  3.52616e-05
 Reference value :  3.52810e-05
 Reference value :  3.53865e-05
 Reference value :  3.55000e-05
 Reference value :  3.55001e-05
 Reference value :  3.55002e-05
 Reference value :  3.55009e-05
 Reference value :  3.55018e-05
 Reference value :  3.55028e-05
 Reference value :  3.55046e-05
 Reference value :  3.55073e-05
 Reference value :  3.55093e-05
 Reference value :  3.55112e-05
 Reference value :  3.55162e-05
 Reference value :  3.55891e-05
 Reference value :  3.57501e-05
 Reference value :  3.57502e-05
 Reference value :  3.57503e-05
 Reference value :  3.57511e-05
 Reference value :  3.57526e-05
 Reference value :  3.57547e-05
 Reference value :  3.57561e-05
 Reference value :  3.57597e-05
 Reference value :  3.57821e-05
 Reference value :  3.60000e-05
 Reference value :  3.60004e-05
 Reference value :  3.60016e-05
 Reference value :  3.60024e-05
 Reference value :  3.60035e-05
 Reference value :  3.60053e-05
 Reference value :  3.60065e-05
 Reference value :  3.60108e-05
 Reference value :  3.60141e-05
 Reference value :  3.60166e-05
 Reference value :  3.60189e-05
 Reference value :  3.60231e-05
 Reference value :  3.60337e-05
 Reference value :  3.60461e-05
 Reference value :  3.60509e-05
 Reference value :  3.60600e-05
 Reference value :  3.60683e-05
 Reference value :  3.60784e-05
 Reference value :  3.60975e-05
 Reference value :  3.62470e-05
 Reference value :  3.62501e-05
 Reference value :  3.62502e-05
 Reference value :  3.62507e-05
 Reference value :  3.62520e-05
 Reference value :  3.62532e-05
 Reference value :  3.62546e-05
 Reference value :  3.62559e-05
 Reference value :  3.62615e-05
 Reference value :  3.63944e-05
 Reference value :  3.65001e-05
 Reference value :  3.65003e-05
 Reference value :  3.65013e-05
 Reference value :  3.65027e-05
 Reference value :  3.65049e-05
 Reference value :  3.65075e-05
 Reference value :  3.65095e-05
 Reference value :  3.65128e-05
 Reference value :  3.65420e-05
 Reference value :  3.67501e-05
 Reference value :  3.67501e-05
 Reference value :  3.67502e-05
 Reference value :  3.67507e-05
 Reference value :  3.67515e-05
 Reference value :  3.67520e-05
 Reference value :  3.67533e-05
 Reference value :  3.67540e-05
 Reference value :  3.67553e-05
 Reference value :  3.67579e-05
 Reference value :  3.67632e-05
 Reference value :  3.68220e-05
 Reference value :  3.70000e-05
 Reference value :  3.70001e-05
 Reference value :  3.70005e-05
 Reference value :  3.70018e-05
 Reference value :  3.70034e-05
 Reference value :  3.70046e-05
 Reference value :  3.70064e-05
 Reference value :  3.70105e-05
 Reference value :  3.70126e-05
 Reference value :  3.70151e-05
 Reference value :  3.70184e-05
 Reference value :  3.70222e-05
 Reference value :  3.70390e-05
 Reference value :  3.71224e-05
 Reference value :  3.71986e-05
 Reference value :  3.72450e-05
 Reference value :  3.72502e-05
 Reference value :  3.72504e-05
 Reference value :  3.72520e-05
 Reference value :  3.72540e-05
 Reference value :  3.72553e-05
 Reference value :  3.72577e-05
 Reference value :  3.72703e-05
 Reference value :  3.75000e-05
 Reference value :  3.75001e-05
 Reference value :  3.75005e-05
 Reference value :  3.75013e-05
 Reference value :  3.75027e-05
 Reference value :  3.75049e-05
 Reference value :  3.75075e-05
 Reference value :  3.75095e-05
 Reference value :  3.75128e-05
 Reference value :  3.75419e-05
 Reference value :  3.77501e-05
 Reference value :  3.77502e-05
 Reference value :  3.77504e-05
 Reference value :  3.77520e-05
 Reference value :  3.77540e-05
 Reference value :  3.77553e-05
 Reference value :  3.77578e-05
 Reference value :  3.77612e-05
 Reference value :  3.77751e-05
 Reference value :  3.79157e-05
 Reference value :  3.80001e-05
 Reference value :  3.80002e-05
 Reference value :  3.80005e-05
 Reference value :  3.80018e-05
 Reference value :  3.80034e-05
 Reference value :  3.80046e-05
 Reference value :  3.80058e-05
 Reference value :  3.80071e-05
 Reference value :  3.80105e-05
 Reference value :  3.80115e-05
 Reference value :  3.80138e-05
 Reference value :  3.80162e-05
 Reference value :  3.80185e-05
 Reference value :  3.80225e-05
 Reference value :  3.80320e-05
 Reference value :  3.80429e-05
 Reference value :  3.80522e-05
 Reference value :  3.80712e-05
 Reference value :  3.80927e-05
 Reference value :  3.82116e-05
 Reference value :  3.82502e-05
 Reference value :  3.82504e-05
 Reference value :  3.82520e-05
 Reference value :  3.82540e-05
 Reference value :  3.82560e-05
 Reference value :  3.82595e-05
 Reference value :  3.83304e-05
 Reference value :  3.85000e-05
 Reference value :  3.85001e-05
 Reference value :  3.85003e-05
 Reference value :  3.85008e-05
 Reference value :  3.85017e-05
 Reference value :  3.85027e-05
 Reference value :  3.85039e-05
 Reference value :  3.85052e-05
 Reference value :  3.85074e-05
 Reference value :  3.85096e-05
 Reference value :  3.85119e-05
 Reference value :  3.85132e-05
 Reference value :  3.85211e-05
 Reference value :  3.85564e-05
 Reference value :  3.87501e-05
 Reference value :  3.87502e-05
 Reference value :  3.87502e-05
 Reference value :  3.87504e-05
 Reference value :  3.87511e-05
 Reference value :  3.87520e-05
 Reference value :  3.87533e-05
 Reference value :  3.87546e-05
 Reference value :  3.87560e-05
 Reference value :  3.87596e-05
 Reference value :  3.87711e-05
 Reference value :  3.88316e-05
 Reference value :  3.90000e-05
 Reference value :  3.90000e-05
 Reference value :  3.90001e-05
 Reference value :  3.90002e-05
 Reference value :  3.90005e-05
 Reference value :  3.90013e-05
 Reference value :  3.90022e-05
 Reference value :  3.90034e-05
 Reference value :  3.90046e-05
 Reference value :  3.90058e-05
 Reference value :  3.90064e-05
 Reference value :  3.90090e-05
 Reference value :  3.90126e-05
 Reference value :  3.90140e-05
 Reference value :  3.90154e-05
 Reference value :  3.90180e-05
 Reference value :  3.90191e-05
 Reference value :  3.90216e-05
 Reference value :  3.90286e-05
 Reference value :  3.90399e-05
 Reference value :  3.90530e-05
 Reference value :  3.90656e-05
 Reference value :  3.90772e-05
 Reference value :  3.90896e-05
 Reference value :  3.91095e-05
 Reference value :  3.91819e-05
 Reference value :  3.92501e-05
 Reference value :  3.92502e-05
 Reference value :  3.92502e-05
 Reference value :  3.92504e-05
 Reference value :  3.92511e-05
 Reference value :  3.92520e-05
 Reference value :  3.92533e-05
 Reference value :  3.92546e-05
 Reference value :  3.92560e-05
 Reference value :  3.92569e-05
 Reference value :  3.92596e-05
 Reference value :  3.92652e-05
 Reference value :  3.92991e-05
 Reference value :  3.94969e-05
 Reference value :  3.95000e-05
 Reference value :  3.95001e-05
 Reference value :  3.95001e-05
 Reference value :  3.95002e-05
 Reference value :  3.95003e-05
 Reference value :  3.95009e-05
 Reference value :  3.95013e-05
 Reference value :  3.95022e-05
 Reference value :  3.95033e-05
 Reference value :  3.95049e-05
 Reference value :  3.95067e-05
 Reference value :  3.95075e-05
 Reference value :  3.95095e-05
 Reference value :  3.95128e-05
 Reference value :  3.95283e-05
 Reference value :  3.97117e-05
 Reference value :  3.97501e-05
 Reference value :  3.97502e-05
 Reference value :  3.97504e-05
 Reference value :  3.97515e-05
 Reference value :  3.97525e-05
 Reference value :  3.97540e-05
 Reference value :  3.97553e-05
 Reference value :  3.97569e-05
 Reference value :  3.97599e-05
 Reference value :  3.97690e-05
 Reference value :  3.98215e-05
 Reference value :  4.00000e-05
 Reference value :  4.00001e-05
 Reference value :  4.00002e-05
 Reference value :  4.00009e-05
 Reference value :  4.00018e-05
 Reference value :  4.00028e-05
 Reference value :  4.00046e-05
 Reference value :  4.00058e-05
 Reference value :  4.00071e-05
 Reference value :  4.00105e-05
 Reference value :  4.00115e-05
 Reference value :  4.00138e-05
 Reference value :  4.00162e-05
 Reference value :  4.00185e-05
 Reference value :  4.00228e-05
 Reference value :  4.00276e-05
 Reference value :  4.00320e-05
 Reference value :  4.00435e-05
 Reference value :  4.01982e-05
 Reference value :  4.02502e-05
 Reference value :  4.02504e-05
 Reference value :  4.02520e-05
 Reference value :  4.02540e-05
 Reference value :  4.02553e-05
 Reference value :  4.02569e-05
 Reference value :  4.02650e-05
 Reference value :  4.03304e-05
 Reference value :  4.05000e-05
 Reference value :  4.05001e-05
 Reference value :  4.05002e-05
 Reference value :  4.05009e-05
 Reference value :  4.05018e-05
 Reference value :  4.05022e-05
 Reference value :  4.05034e-05
 Reference value :  4.05046e-05
 Reference value :  4.05073e-05
 Reference value :  4.05093e-05
 Reference value :  4.05112e-05
 Reference value :  4.05136e-05
 Reference value :  4.05503e-05
 Reference value :  4.07501e-05
 Reference value :  4.07502e-05
 Reference value :  4.07503e-05
 Reference value :  4.07507e-05
 Reference value :  4.07520e-05
 Reference value :  4.07541e-05
 Reference value :  4.07554e-05
 Reference value :  4.07570e-05
 Reference value :  4.07620e-05
 Reference value :  4.07821e-05
 Reference value :  4.09780e-05
 Reference value :  4.10004e-05
 Reference value :  4.10015e-05
 Reference value :  4.10024e-05
 Reference value :  4.10035e-05
 Reference value :  4.10047e-05
 Reference value :  4.10059e-05
 Reference value :  4.10080e-05
 Reference value :  4.10126e-05
 Reference value :  4.10153e-05
 Reference value :  4.10189e-05
 Reference value :  4.10250e-05
 Reference value :  4.10798e-05
 Reference value :  4.12501e-05
 Reference value :  4.12503e-05
 Reference value :  4.12510e-05
 Reference value :  4.12525e-05
 Reference value :  4.12546e-05
 Reference value :  4.12577e-05
 Reference value :  4.12981e-05
 Reference value :  4.15001e-05
 Reference value :  4.15002e-05
 Reference value :  4.15013e-05
 Reference value :  4.15028e-05
 Reference value :  4.15046e-05
 Reference value :  4.15073e-05
 Reference value :  4.15093e-05
 Reference value :  4.15124e-05
 Reference value :  4.15893e-05
 Reference value :  4.17501e-05
 Reference value :  4.17503e-05
 Reference value :  4.17511e-05
 Reference value :  4.17526e-05
 Reference value :  4.17547e-05
 Reference value :  4.17569e-05
 Reference value :  4.17711e-05
 Reference value :  4.19771e-05
 Reference value :  4.20001e-05
 Reference value :  4.20003e-05
 Reference value :  4.20013e-05
 Reference value :  4.20022e-05
 Reference value :  4.20046e-05
 Reference value :  4.20058e-05
 Reference value :  4.20080e-05
 Reference value :  4.20111e-05
 Reference value :  4.20340e-05
 Reference value :  4.22462e-05
 Reference value :  4.22502e-05
 Reference value :  4.22503e-05
 Reference value :  4.22515e-05
 Reference value :  4.22533e-05
 Reference value :  4.22561e-05
 Reference value :  4.22629e-05
 Reference value :  4.23166e-05
 Reference value :  4.25001e-05
 Reference value :  4.25003e-05
 Reference value :  4.25015e-05
 Reference value :  4.25037e-05
 Reference value :  4.25057e-05
 Reference value :  4.25078e-05
 Reference value :  4.25273e-05
 Reference value :  4.25368e-05
 Reference value :  4.25420e-05
 Reference value :  4.25501e-05
 Reference value :  4.25527e-05
 Reference value :  4.25606e-05
 Reference value :  4.25746e-05
 Reference value :  4.27501e-05
 Reference value :  4.27502e-05
 Reference value :  4.27507e-05
 Reference value :  4.27520e-05
 Reference value :  4.27546e-05
 Reference value :  4.27577e-05
 Reference value :  4.28295e-05
 Reference value :  4.29345e-05
 Reference value :  4.30000e-05
 Reference value :  4.30003e-05
 Reference value :  4.30018e-05
 Reference value :  4.30041e-05
 Reference value :  4.30099e-05
 Reference value :  4.30144e-05
 Reference value :  4.30197e-05
 Reference value :  4.31666e-05
 Reference value :  4.32502e-05
 Reference value :  4.32511e-05
 Reference value :  4.32533e-05
 Reference value :  4.32554e-05
 Reference value :  4.32587e-05
 Reference value :  4.32626e-05
 Reference value :  4.32989e-05
 Reference value :  4.34369e-05
 Reference value :  4.35011e-05
 Reference value :  4.35046e-05
 Reference value :  4.35078e-05
 Reference value :  4.35125e-05
 Reference value :  4.35159e-05
 Reference value :  4.35189e-05
 Reference value :  4.35271e-05
 Reference value :  4.36846e-05
 Reference value :  4.37302e-05
 Reference value :  4.37501e-05
 Reference value :  4.37503e-05
 Reference value :  4.37520e-05
 Reference value :  4.37546e-05
 Reference value :  4.37577e-05
 Reference value :  4.37808e-05
 Reference value :  4.40000e-05
 Reference value :  4.40002e-05
 Reference value :  4.40018e-05
 Reference value :  4.40040e-05
 Reference value :  4.40074e-05
 Reference value :  4.40117e-05
 Reference value :  4.40409e-05
 Reference value :  4.42501e-05
 Reference value :  4.42503e-05
 Reference value :  4.42511e-05
 Reference value :  4.42525e-05
 Reference value :  4.42546e-05
 Reference value :  4.42579e-05
 Reference value :  4.42997e-05
 Reference value :  4.45000e-05
 Reference value :  4.45002e-05
 Reference value :  4.45013e-05
 Reference value :  4.45028e-05
 Reference value :  4.45046e-05
 Reference value :  4.45064e-05
 Reference value :  4.45126e-05
 Reference value :  4.45154e-05
 Reference value :  4.45191e-05
 Reference value :  4.45253e-05
 Reference value :  4.45469e-05
 Reference value :  4.45577e-05
 Reference value :  4.45779e-05
 Reference value :  4.47482e-05
 Reference value :  4.47502e-05
 Reference value :  4.47511e-05
 Reference value :  4.47533e-05
 Reference value :  4.47560e-05
 Reference value :  4.47651e-05
 Reference value :  4.50000e-05
 Reference value :  4.50001e-05
 Reference value :  4.50009e-05
 Reference value :  4.50013e-05
 Reference value :  4.50022e-05
 Reference value :  4.50033e-05
 Reference value :  4.50049e-05
 Reference value :  4.50067e-05
 Reference value :  4.50084e-05
 Reference value :  4.50106e-05
 Reference value :  4.50141e-05
 Reference value :  4.50662e-05
 Reference value :  4.52501e-05
 Reference value :  4.52502e-05
 Reference value :  4.52503e-05
 Reference value :  4.52507e-05
 Reference value :  4.52520e-05
 Reference value :  4.52540e-05
 Reference value :  4.52560e-05
 Reference value :  4.52599e-05
 Reference value :  4.52752e-05
 Reference value :  4.53216e-05
 Reference value :  4.55000e-05
 Reference value :  4.55001e-05
 Reference value :  4.55001e-05
 Reference value :  4.55003e-05
 Reference value :  4.55009e-05
 Reference value :  4.55013e-05
 Reference value :  4.55022e-05
 Reference value :  4.55040e-05
 Reference value :  4.55046e-05
 Reference value :  4.55058e-05
 Reference value :  4.55071e-05
 Reference value :  4.55090e-05
 Reference value :  4.55115e-05
 Reference value :  4.55138e-05
 Reference value :  4.55161e-05
 Reference value :  4.55184e-05
 Reference value :  4.55209e-05
 Reference value :  4.55266e-05
 Reference value :  4.55513e-05
 Reference value :  4.55957e-05
 Reference value :  4.56472e-05
 Reference value :  4.56939e-05
 Reference value :  4.57485e-05
 Reference value :  4.57501e-05
 Reference value :  4.57502e-05
 Reference value :  4.57503e-05
 Reference value :  4.57504e-05
 Reference value :  4.57511e-05
 Reference value :  4.57520e-05
 Reference value :  4.57540e-05
 Reference value :  4.57553e-05
 Reference value :  4.57569e-05
 Reference value :  4.57617e-05
 Reference value :  4.57984e-05
 Reference value :  4.60000e-05
 Reference value :  4.60001e-05
 Reference value :  4.60001e-05
 Reference value :  4.60003e-05
 Reference value :  4.60011e-05
 Reference value :  4.60020e-05
 Reference value :  4.60036e-05
 Reference value :  4.60059e-05
 Reference value :  4.60076e-05
 Reference value :  4.60094e-05
 Reference value :  4.60129e-05
 Reference value :  4.60273e-05
 Reference value :  4.61763e-05
 Reference value :  4.62502e-05
 Reference value :  4.62503e-05
 Reference value :  4.62507e-05
 Reference value :  4.62520e-05
 Reference value :  4.62540e-05
 Reference value :  4.62560e-05
 Reference value :  4.62588e-05
 Reference value :  4.62632e-05
 Reference value :  4.62985e-05
 Reference value :  4.65000e-05
 Reference value :  4.65001e-05
 Reference value :  4.65003e-05
 Reference value :  4.65013e-05
 Reference value :  4.65022e-05
 Reference value :  4.65040e-05
 Reference value :  4.65046e-05
 Reference value :  4.65058e-05
 Reference value :  4.65071e-05
 Reference value :  4.65105e-05
 Reference value :  4.65115e-05
 Reference value :  4.65138e-05
 Reference value :  4.65174e-05
 Reference value :  4.65197e-05
 Reference value :  4.65226e-05
 Reference value :  4.65332e-05
 Reference value :  4.65384e-05
 Reference value :  4.65489e-05
 Reference value :  4.65555e-05
 Reference value :  4.65653e-05
 Reference value :  4.65876e-05
 Reference value :  4.66275e-05
 Reference value :  4.67501e-05
 Reference value :  4.67502e-05
 Reference value :  4.67503e-05
 Reference value :  4.67511e-05
 Reference value :  4.67520e-05
 Reference value :  4.67540e-05
 Reference value :  4.67553e-05
 Reference value :  4.67568e-05
 Reference value :  4.67617e-05
 Reference value :  4.67982e-05
 Reference value :  4.70000e-05
 Reference value :  4.70001e-05
 Reference value :  4.70001e-05
 Reference value :  4.70003e-05
 Reference value :  4.70013e-05
 Reference value :  4.70022e-05
 Reference value :  4.70040e-05
 Reference value :  4.70053e-05
 Reference value :  4.70073e-05
 Reference value :  4.70093e-05
 Reference value :  4.70102e-05
 Reference value :  4.70124e-05
 Reference value :  4.70212e-05
 Reference value :  4.70891e-05
 Reference value :  4.72501e-05
 Reference value :  4.72502e-05
 Reference value :  4.72502e-05
 Reference value :  4.72503e-05
 Reference value :  4.72507e-05
[...]
 Reference value :  2.59755e-04
 Reference value :  2.59757e-04
 Reference value :  2.59762e-04
 Reference value :  2.59782e-04
 Reference value :  2.59885e-04
 Reference value :  2.60000e-04
 Reference value :  2.60000e-04
 Reference value :  2.60000e-04
 Reference value :  2.60001e-04
 Reference value :  2.60001e-04
 Reference value :  2.60002e-04
 Reference value :  2.60004e-04
 Reference value :  2.60005e-04
 Reference value :  2.60006e-04
 Reference value :  2.60007e-04
 Reference value :  2.60011e-04
 Reference value :  2.60014e-04
 Reference value :  2.60018e-04
 Reference value :  2.60026e-04
 Reference value :  2.60052e-04
 Reference value :  2.60078e-04
 Reference value :  2.60095e-04
 Reference value :  2.60136e-04
 Reference value :  2.60250e-04
 Reference value :  2.60250e-04
 Reference value :  2.60250e-04
 Reference value :  2.60251e-04
 Reference value :  2.60252e-04
 Reference value :  2.60253e-04
 Reference value :  2.60255e-04
 Reference value :  2.60257e-04
 Reference value :  2.60265e-04
 Reference value :  2.60386e-04
 Reference value :  2.60500e-04
 Reference value :  2.60500e-04
 Reference value :  2.60501e-04
 Reference value :  2.60502e-04
 Reference value :  2.60503e-04
 Reference value :  2.60505e-04
 Reference value :  2.60507e-04
 Reference value :  2.60508e-04
 Reference value :  2.60509e-04
 Reference value :  2.60513e-04
 Reference value :  2.60528e-04
 Reference value :  2.60712e-04
 Reference value :  2.60750e-04
 Reference value :  2.60750e-04
 Reference value :  2.60750e-04
 Reference value :  2.60751e-04
 Reference value :  2.60752e-04
 Reference value :  2.60753e-04
 Reference value :  2.60755e-04
 Reference value :  2.60756e-04
 Reference value :  2.60759e-04
 Reference value :  2.60763e-04
 Reference value :  2.60784e-04
 Reference value :  2.61000e-04
 Reference value :  2.61000e-04
 Reference value :  2.61000e-04
 Reference value :  2.61001e-04
 Reference value :  2.61003e-04
 Reference value :  2.61005e-04
 Reference value :  2.61006e-04
 Reference value :  2.61008e-04
 Reference value :  2.61011e-04
 Reference value :  2.61014e-04
 Reference value :  2.61016e-04
 Reference value :  2.61019e-04
 Reference value :  2.61021e-04
 Reference value :  2.61022e-04
 Reference value :  2.61025e-04
 Reference value :  2.61031e-04
 Reference value :  2.61059e-04
 Reference value :  2.61173e-04
 Reference value :  2.61250e-04
 Reference value :  2.61250e-04
 Reference value :  2.61250e-04
 Reference value :  2.61251e-04
 Reference value :  2.61252e-04
 Reference value :  2.61254e-04
 Reference value :  2.61255e-04
 Reference value :  2.61257e-04
 Reference value :  2.61262e-04
 Reference value :  2.61299e-04
 Reference value :  2.61500e-04
 Reference value :  2.61500e-04
 Reference value :  2.61500e-04
 Reference value :  2.61500e-04
 Reference value :  2.61501e-04
 Reference value :  2.61502e-04
 Reference value :  2.61504e-04
 Reference value :  2.61505e-04
 Reference value :  2.61507e-04
 Reference value :  2.61508e-04
 Reference value :  2.61510e-04
 Reference value :  2.61514e-04
 Reference value :  2.61550e-04
 Reference value :  2.61750e-04
 Reference value :  2.61750e-04
 Reference value :  2.61750e-04
 Reference value :  2.61750e-04
 Reference value :  2.61752e-04
 Reference value :  2.61753e-04
 Reference value :  2.61755e-04
 Reference value :  2.61757e-04
 Reference value :  2.61762e-04
 Reference value :  2.61800e-04
 Reference value :  2.62000e-04
 Reference value :  2.62000e-04
 Reference value :  2.62000e-04
 Reference value :  2.62000e-04
 Reference value :  2.62001e-04
 Reference value :  2.62002e-04
 Reference value :  2.62003e-04
 Reference value :  2.62005e-04
 Reference value :  2.62006e-04
 Reference value :  2.62006e-04
 Reference value :  2.62009e-04
 Reference value :  2.62013e-04
 Reference value :  2.62014e-04
 Reference value :  2.62015e-04
 Reference value :  2.62018e-04
 Reference value :  2.62019e-04
 Reference value :  2.62022e-04
 Reference value :  2.62025e-04
 Reference value :  2.62042e-04
 Reference value :  2.62134e-04
 Reference value :  2.62250e-04
 Reference value :  2.62250e-04
 Reference value :  2.62250e-04
 Reference value :  2.62250e-04
 Reference value :  2.62250e-04
 Reference value :  2.62251e-04
 Reference value :  2.62252e-04
 Reference value :  2.62253e-04
 Reference value :  2.62255e-04
 Reference value :  2.62257e-04
 Reference value :  2.62262e-04
 Reference value :  2.62298e-04
 Reference value :  2.62500e-04
 Reference value :  2.62500e-04
 Reference value :  2.62500e-04
 Reference value :  2.62500e-04
 Reference value :  2.62501e-04
 Reference value :  2.62502e-04
 Reference value :  2.62504e-04
 Reference value :  2.62505e-04
 Reference value :  2.62507e-04
 Reference value :  2.62509e-04
 Reference value :  2.62511e-04
 Reference value :  2.62514e-04
 Reference value :  2.62531e-04
 Reference value :  2.62667e-04
 Reference value :  2.62750e-04
 Reference value :  2.62750e-04
 Reference value :  2.62750e-04
 Reference value :  2.62751e-04
 Reference value :  2.62752e-04
 Reference value :  2.62753e-04
 Reference value :  2.62755e-04
 Reference value :  2.62757e-04
 Reference value :  2.62762e-04
 Reference value :  2.62800e-04
 Reference value :  2.63000e-04
 Reference value :  2.63000e-04
 Reference value :  2.63000e-04
 Reference value :  2.63001e-04
 Reference value :  2.63001e-04
 Reference value :  2.63002e-04
 Reference value :  2.63004e-04
 Reference value :  2.63005e-04
 Reference value :  2.63006e-04
 Reference value :  2.63007e-04
 Reference value :  2.63010e-04
 Reference value :  2.63014e-04
 Reference value :  2.63051e-04
 Reference value :  2.63250e-04
 Reference value :  2.63250e-04
 Reference value :  2.63250e-04
 Reference value :  2.63251e-04
 Reference value :  2.63252e-04
 Reference value :  2.63253e-04
 Reference value :  2.63256e-04
 Reference value :  2.63263e-04
 Reference value :  2.63294e-04
 Reference value :  2.63500e-04
 Reference value :  2.63500e-04
 Reference value :  2.63500e-04
 Reference value :  2.63501e-04
 Reference value :  2.63502e-04
 Reference value :  2.63503e-04
 Reference value :  2.63504e-04
 Reference value :  2.63505e-04
 Reference value :  2.63506e-04
 Reference value :  2.63507e-04
 Reference value :  2.63509e-04
 Reference value :  2.63521e-04
 Reference value :  2.63527e-04
 Reference value :  2.63533e-04
 Reference value :  2.63537e-04
 Reference value :  2.63542e-04
 Reference value :  2.63545e-04
 Reference value :  2.63549e-04
 Reference value :  2.63560e-04
 Reference value :  2.63569e-04
 Reference value :  2.63606e-04
 Reference value :  2.63674e-04
 Reference value :  2.63713e-04
 Reference value :  2.63750e-04
 Reference value :  2.63750e-04
 Reference value :  2.63750e-04
 Reference value :  2.63752e-04
 Reference value :  2.63753e-04
 Reference value :  2.63754e-04
 Reference value :  2.63755e-04
 Reference value :  2.63757e-04
 Reference value :  2.63765e-04
 Reference value :  2.63788e-04
 Reference value :  2.64000e-04
 Reference value :  2.64000e-04
 Reference value :  2.64000e-04
 Reference value :  2.64001e-04
 Reference value :  2.64002e-04
 Reference value :  2.64004e-04
 Reference value :  2.64007e-04
 Reference value :  2.64010e-04
 Reference value :  2.64013e-04
 Reference value :  2.64016e-04
 Reference value :  2.64020e-04
 Reference value :  2.64032e-04
 Reference value :  2.64168e-04
 Reference value :  2.64250e-04
 Reference value :  2.64250e-04
 Reference value :  2.64252e-04
 Reference value :  2.64254e-04
 Reference value :  2.64255e-04
 Reference value :  2.64259e-04
 Reference value :  2.64265e-04
 Reference value :  2.64318e-04
 Reference value :  2.64500e-04
 Reference value :  2.64500e-04
 Reference value :  2.64500e-04
 Reference value :  2.64501e-04
 Reference value :  2.64502e-04
 Reference value :  2.64504e-04
 Reference value :  2.64505e-04
 Reference value :  2.64506e-04
 Reference value :  2.64510e-04
 Reference value :  2.64513e-04
 Reference value :  2.64515e-04
 Reference value :  2.64517e-04
 Reference value :  2.64519e-04
 Reference value :  2.64524e-04
 Reference value :  2.64546e-04
 Reference value :  2.64726e-04
 Reference value :  2.64750e-04
 Reference value :  2.64750e-04
 Reference value :  2.64751e-04
 Reference value :  2.64752e-04
 Reference value :  2.64754e-04
 Reference value :  2.64755e-04
 Reference value :  2.64757e-04
 Reference value :  2.64762e-04
 Reference value :  2.64798e-04
 Reference value :  2.64964e-04
 Reference value :  2.65000e-04
 Reference value :  2.65000e-04
 Reference value :  2.65000e-04
 Reference value :  2.65001e-04
 Reference value :  2.65003e-04
 Reference value :  2.65005e-04
 Reference value :  2.65007e-04
 Reference value :  2.65008e-04
 Reference value :  2.65009e-04
 Reference value :  2.65013e-04
 Reference value :  2.65028e-04
 Reference value :  2.65211e-04
 Reference value :  2.65250e-04
 Reference value :  2.65250e-04
 Reference value :  2.65250e-04
 Reference value :  2.65251e-04
 Reference value :  2.65252e-04
 Reference value :  2.65253e-04
 Reference value :  2.65255e-04
 Reference value :  2.65257e-04
 Reference value :  2.65259e-04
 Reference value :  2.65260e-04
 Reference value :  2.65265e-04
 Reference value :  2.65284e-04
 Reference value :  2.65415e-04
 Reference value :  2.65500e-04
 Reference value :  2.65500e-04
 Reference value :  2.65500e-04
 Reference value :  2.65501e-04
 Reference value :  2.65502e-04
 Reference value :  2.65504e-04
 Reference value :  2.65505e-04
 Reference value :  2.65506e-04
 Reference value :  2.65507e-04
 Reference value :  2.65509e-04
 Reference value :  2.65511e-04
 Reference value :  2.65514e-04
 Reference value :  2.65516e-04
 Reference value :  2.65518e-04
 Reference value :  2.65521e-04
 Reference value :  2.65528e-04
 Reference value :  2.65577e-04
 Reference value :  2.65627e-04
 Reference value :  2.65645e-04
 Reference value :  2.65673e-04
 Reference value :  2.65697e-04
 Reference value :  2.65730e-04
 Reference value :  2.65750e-04
 Reference value :  2.65750e-04
 Reference value :  2.65750e-04
 Reference value :  2.65750e-04
 Reference value :  2.65751e-04
 Reference value :  2.65752e-04
 Reference value :  2.65752e-04
 Reference value :  2.65753e-04
 Reference value :  2.65755e-04
 Reference value :  2.65756e-04
 Reference value :  2.65758e-04
 Reference value :  2.65765e-04
 Reference value :  2.65798e-04
 Reference value :  2.65986e-04
 Reference value :  2.66000e-04
 Reference value :  2.66000e-04
 Reference value :  2.66000e-04
 Reference value :  2.66001e-04
 Reference value :  2.66002e-04
 Reference value :  2.66003e-04
 Reference value :  2.66004e-04
 Reference value :  2.66005e-04
 Reference value :  2.66007e-04
 Reference value :  2.66009e-04
 Reference value :  2.66011e-04
 Reference value :  2.66014e-04
 Reference value :  2.66031e-04
 Reference value :  2.66250e-04
 Reference value :  2.66250e-04
 Reference value :  2.66250e-04
 Reference value :  2.66251e-04
 Reference value :  2.66252e-04
 Reference value :  2.66254e-04
 Reference value :  2.66255e-04
 Reference value :  2.66258e-04
 Reference value :  2.66272e-04
 Reference value :  2.66331e-04
 Reference value :  2.66500e-04
 Reference value :  2.66500e-04
 Reference value :  2.66500e-04
 Reference value :  2.66501e-04
 Reference value :  2.66502e-04
 Reference value :  2.66503e-04
 Reference value :  2.66505e-04
 Reference value :  2.66506e-04
 Reference value :  2.66507e-04
 Reference value :  2.66511e-04
 Reference value :  2.66514e-04
 Reference value :  2.66517e-04
 Reference value :  2.66519e-04
 Reference value :  2.66523e-04
 Reference value :  2.66534e-04
 Reference value :  2.66552e-04
 Reference value :  2.66571e-04
 Reference value :  2.66584e-04
 Reference value :  2.66590e-04
 Reference value :  2.66609e-04
 Reference value :  2.66659e-04
 Reference value :  2.66750e-04
 Reference value :  2.66750e-04
 Reference value :  2.66750e-04
 Reference value :  2.66750e-04
 Reference value :  2.66751e-04
 Reference value :  2.66752e-04
 Reference value :  2.66752e-04
 Reference value :  2.66753e-04
 Reference value :  2.66755e-04
 Reference value :  2.66756e-04
 Reference value :  2.66757e-04
 Reference value :  2.66760e-04
 Reference value :  2.66765e-04
 Reference value :  2.66799e-04
 Reference value :  2.67000e-04
 Reference value :  2.67000e-04
 Reference value :  2.67000e-04
 Reference value :  2.67000e-04
 Reference value :  2.67001e-04
 Reference value :  2.67002e-04
 Reference value :  2.67003e-04
 Reference value :  2.67005e-04
 Reference value :  2.67007e-04
 Reference value :  2.67008e-04
 Reference value :  2.67009e-04
 Reference value :  2.67012e-04
 Reference value :  2.67014e-04
 Reference value :  2.67028e-04
 Reference value :  2.67115e-04
 Reference value :  2.67250e-04
 Reference value :  2.67250e-04
 Reference value :  2.67250e-04
 Reference value :  2.67251e-04
 Reference value :  2.67252e-04
 Reference value :  2.67252e-04
 Reference value :  2.67253e-04
 Reference value :  2.67254e-04
 Reference value :  2.67255e-04
 Reference value :  2.67256e-04
 Reference value :  2.67258e-04
 Reference value :  2.67260e-04
 Reference value :  2.67265e-04
 Reference value :  2.67299e-04
 Reference value :  2.67500e-04
 Reference value :  2.67500e-04
 Reference value :  2.67500e-04
 Reference value :  2.67501e-04
 Reference value :  2.67501e-04
 Reference value :  2.67502e-04
 Reference value :  2.67503e-04
 Reference value :  2.67505e-04
 Reference value :  2.67506e-04
 Reference value :  2.67507e-04
 Reference value :  2.67511e-04
 Reference value :  2.67514e-04
 Reference value :  2.67517e-04
 Reference value :  2.67520e-04
 Reference value :  2.67525e-04
 Reference value :  2.67539e-04
 Reference value :  2.67550e-04
 Reference value :  2.67553e-04
 Reference value :  2.67559e-04
 Reference value :  2.67573e-04
 Reference value :  2.67591e-04
 Reference value :  2.67624e-04
 Reference value :  2.67750e-04
 Reference value :  2.67750e-04
 Reference value :  2.67750e-04
 Reference value :  2.67751e-04
 Reference value :  2.67752e-04
 Reference value :  2.67754e-04
 Reference value :  2.67755e-04
 Reference value :  2.67757e-04
 Reference value :  2.67765e-04
 Reference value :  2.67830e-04
 Reference value :  2.68000e-04
 Reference value :  2.68000e-04
 Reference value :  2.68000e-04
 Reference value :  2.68001e-04
 Reference value :  2.68002e-04
 Reference value :  2.68004e-04
 Reference value :  2.68005e-04
 Reference value :  2.68007e-04
 Reference value :  2.68009e-04
 Reference value :  2.68012e-04
 Reference value :  2.68050e-04
 Reference value :  2.68250e-04
 Reference value :  2.68250e-04
 Reference value :  2.68251e-04
 Reference value :  2.68252e-04
 Reference value :  2.68254e-04
 Reference value :  2.68255e-04
 Reference value :  2.68257e-04
 Reference value :  2.68272e-04
 Reference value :  2.68500e-04
 Reference value :  2.68500e-04
 Reference value :  2.68501e-04
 Reference value :  2.68502e-04
 Reference value :  2.68503e-04
 Reference value :  2.68505e-04
 Reference value :  2.68506e-04
 Reference value :  2.68508e-04
 Reference value :  2.68513e-04
 Reference value :  2.68515e-04
 Reference value :  2.68519e-04
 Reference value :  2.68524e-04
 Reference value :  2.68541e-04
 Reference value :  2.68569e-04
 Reference value :  2.68583e-04
 Reference value :  2.68635e-04
 Reference value :  2.68750e-04
 Reference value :  2.68750e-04
 Reference value :  2.68751e-04
 Reference value :  2.68753e-04
 Reference value :  2.68755e-04
 Reference value :  2.68758e-04
 Reference value :  2.68799e-04
 Reference value :  2.69000e-04
 Reference value :  2.69000e-04
 Reference value :  2.69001e-04
 Reference value :  2.69003e-04
 Reference value :  2.69006e-04
 Reference value :  2.69008e-04
 Reference value :  2.69011e-04
 Reference value :  2.69021e-04
 Reference value :  2.69066e-04
 Reference value :  2.69250e-04
 Reference value :  2.69250e-04
 Reference value :  2.69250e-04
 Reference value :  2.69251e-04
 Reference value :  2.69252e-04
 Reference value :  2.69254e-04
 Reference value :  2.69255e-04
 Reference value :  2.69258e-04
 Reference value :  2.69260e-04
 Reference value :  2.69265e-04
 Reference value :  2.69322e-04
 Reference value :  2.69500e-04
 Reference value :  2.69500e-04
 Reference value :  2.69500e-04
 Reference value :  2.69500e-04
 Reference value :  2.69501e-04
 Reference value :  2.69501e-04
 Reference value :  2.69502e-04
 Reference value :  2.69504e-04
 Reference value :  2.69505e-04
 Reference value :  2.69506e-04
 Reference value :  2.69510e-04
 Reference value :  2.69511e-04
 Reference value :  2.69514e-04
 Reference value :  2.69517e-04
 Reference value :  2.69520e-04
 Reference value :  2.69525e-04
 Reference value :  2.69540e-04
 Reference value :  2.69545e-04
 Reference value :  2.69554e-04
 Reference value :  2.69565e-04
 Reference value :  2.69604e-04
 Reference value :  2.69750e-04
 Reference value :  2.69750e-04
 Reference value :  2.69750e-04
 Reference value :  2.69752e-04
 Reference value :  2.69754e-04
 Reference value :  2.69755e-04
 Reference value :  2.69758e-04
 Reference value :  2.69781e-04
 Reference value :  2.70000e-04
 Reference value :  2.70000e-04
 Reference value :  2.70000e-04
 Reference value :  2.70001e-04
 Reference value :  2.70002e-04
 Reference value :  2.70004e-04
 Reference value :  2.70005e-04
 Reference value :  2.70007e-04
 Reference value :  2.70009e-04
 Reference value :  2.70012e-04
 Reference value :  2.70031e-04
 Reference value :  2.70250e-04
 Reference value :  2.70250e-04
 Reference value :  2.70250e-04
 Reference value :  2.70252e-04
 Reference value :  2.70254e-04
 Reference value :  2.70255e-04
 Reference value :  2.70258e-04
 Reference value :  2.70300e-04
 Reference value :  2.70500e-04
 Reference value :  2.70500e-04
 Reference value :  2.70501e-04
 Reference value :  2.70502e-04
 Reference value :  2.70505e-04
 Reference value :  2.70506e-04
 Reference value :  2.70508e-04
 Reference value :  2.70513e-04
 Reference value :  2.70514e-04
 Reference value :  2.70518e-04
 Reference value :  2.70520e-04
 Reference value :  2.70557e-04
 Reference value :  2.70634e-04
 Reference value :  2.70710e-04
 Reference value :  2.70750e-04
 Reference value :  2.70750e-04
 Reference value :  2.70751e-04
 Reference value :  2.70752e-04
 Reference value :  2.70755e-04
 Reference value :  2.70758e-04
 Reference value :  2.70782e-04
 Reference value :  2.71000e-04
 Reference value :  2.71000e-04
 Reference value :  2.71000e-04
 Reference value :  2.71001e-04
 Reference value :  2.71002e-04
 Reference value :  2.71003e-04
 Reference value :  2.71004e-04
 Reference value :  2.71007e-04
 Reference value :  2.71008e-04
 Reference value :  2.71009e-04
 Reference value :  2.71012e-04
 Reference value :  2.71014e-04
 Reference value :  2.71042e-04
 Reference value :  2.71211e-04
 Reference value :  2.71250e-04
 Reference value :  2.71250e-04
 Reference value :  2.71250e-04
 Reference value :  2.71251e-04
 Reference value :  2.71252e-04
 Reference value :  2.71254e-04
 Reference value :  2.71256e-04
 Reference value :  2.71259e-04
 Reference value :  2.71269e-04
 Reference value :  2.71299e-04
 Reference value :  2.71500e-04
 Reference value :  2.71500e-04
 Reference value :  2.71500e-04
 Reference value :  2.71500e-04
 Reference value :  2.71501e-04
 Reference value :  2.71502e-04
 Reference value :  2.71505e-04
 Reference value :  2.71506e-04
 Reference value :  2.71508e-04
 Reference value :  2.71510e-04
 Reference value :  2.71514e-04
 Reference value :  2.71520e-04
 Reference value :  2.71549e-04
 Reference value :  2.71573e-04
 Reference value :  2.71621e-04
 Reference value :  2.71750e-04
 Reference value :  2.71750e-04
 Reference value :  2.71750e-04
 Reference value :  2.71751e-04
 Reference value :  2.71752e-04
 Reference value :  2.71755e-04
 Reference value :  2.71760e-04
 Reference value :  2.71794e-04
No. of Data Rows : 40285
ngspice-44 done
