
Note: Compatibility modes selected: hs a


Circuit: ** sch_path: /home/samantha/cace/sar-adc-using-sky130-pdk/runs/run_2025-09-04_10-10-54/parameters/sampling_rate/run_05/sampling_rate.sch

option SCALE: Scale is set to 1e-06 for instance and model parameters
option SCALE: Scale is set to 1e-06 for instance and model parameters
option SCALE: Scale is set to 1e-06 for instance and model parameters
option SCALE: Scale is set to 1e-06 for instance and model parameters
Doing analysis at TEMP = 27.000000 and TNOM = 27.000000

Using KLU as Direct Linear Solver
Operating point simulation skipped by 'uic',
  now using transient initial conditions.
 Reference value :  1.00000e-12
 Reference value :  1.02800e-12
 Reference value :  1.08400e-12
 Reference value :  1.19600e-12
 Reference value :  1.42000e-12
 Reference value :  2.30388e-12
 Reference value :  4.43260e-12
 Reference value :  9.74354e-12
 Reference value :  2.06602e-11
 Reference value :  6.33063e-11
 Reference value :  1.00000e-10
 Reference value :  1.05686e-10
 Reference value :  1.39803e-10
 Reference value :  2.76270e-10
 Reference value :  4.58227e-10
 Reference value :  6.72855e-10
 Reference value :  1.37840e-09
 Reference value :  1.87855e-09
 Reference value :  3.17746e-09
 Reference value :  4.10695e-09
 Reference value :  5.04882e-09
 Reference value :  6.05518e-09
 Reference value :  6.73327e-09
 Reference value :  8.34402e-09
 Reference value :  1.04809e-08
 Reference value :  1.16229e-08
 Reference value :  1.24930e-08
 Reference value :  1.41974e-08
 Reference value :  1.70624e-08
 Reference value :  2.56615e-08
 Reference value :  3.03167e-08
 Reference value :  4.00882e-08
 Reference value :  5.36811e-08
 Reference value :  8.16645e-08
 Reference value :  1.54396e-07
 Reference value :  1.92430e-07
 Reference value :  2.12262e-07
 Reference value :  2.26634e-07
 Reference value :  2.42590e-07
 Reference value :  2.50110e-07
 Reference value :  2.50170e-07
 Reference value :  2.50207e-07
 Reference value :  2.50252e-07
 Reference value :  2.50311e-07
 Reference value :  2.50403e-07
 Reference value :  2.50538e-07
 Reference value :  2.50748e-07
 Reference value :  2.51465e-07
 Reference value :  2.52416e-07
 Reference value :  2.53036e-07
 Reference value :  2.54298e-07
 Reference value :  2.54904e-07
 Reference value :  2.55549e-07
 Reference value :  2.57264e-07
 Reference value :  2.60269e-07
 Reference value :  2.66494e-07
 Reference value :  3.03629e-07
 Reference value :  4.00820e-07
 Reference value :  5.00010e-07
 Reference value :  5.00070e-07
 Reference value :  5.00108e-07
 Reference value :  5.00155e-07
 Reference value :  5.00218e-07
 Reference value :  5.00531e-07
 Reference value :  5.01207e-07
 Reference value :  5.01590e-07
 Reference value :  5.02512e-07
 Reference value :  5.03013e-07
 Reference value :  5.04136e-07
 Reference value :  5.05670e-07
 Reference value :  5.06888e-07
 Reference value :  5.08272e-07
 Reference value :  5.09391e-07
 Reference value :  5.12016e-07
 Reference value :  5.13372e-07
 Reference value :  5.16781e-07
 Reference value :  5.18863e-07
 Reference value :  5.27987e-07
 Reference value :  5.56675e-07
 Reference value :  6.53489e-07
 Reference value :  7.50110e-07
 Reference value :  7.50170e-07
 Reference value :  7.50208e-07
 Reference value :  7.50448e-07
 Reference value :  7.51363e-07
 Reference value :  7.52219e-07
 Reference value :  7.53498e-07
 Reference value :  7.53996e-07
 Reference value :  7.55176e-07
 Reference value :  7.55867e-07
 Reference value :  7.57476e-07
 Reference value :  7.58465e-07
 Reference value :  7.61434e-07
 Reference value :  7.66554e-07
 Reference value :  7.79466e-07
 Reference value :  8.14010e-07
 Reference value :  9.07335e-07
 Reference value :  1.00001e-06
 Reference value :  1.00007e-06
 Reference value :  1.00011e-06
 Reference value :  1.00016e-06
 Reference value :  1.00034e-06
 Reference value :  1.00088e-06
 Reference value :  1.00163e-06
 Reference value :  1.00259e-06
 Reference value :  1.00309e-06
 Reference value :  1.00421e-06
 Reference value :  1.00472e-06
 Reference value :  1.00522e-06
 Reference value :  1.00645e-06
 Reference value :  1.00817e-06
 Reference value :  1.01020e-06
 Reference value :  1.01117e-06
 Reference value :  1.01210e-06
 Reference value :  1.01311e-06
 Reference value :  1.01380e-06
 Reference value :  1.01551e-06
 Reference value :  1.01637e-06
 Reference value :  1.01728e-06
 Reference value :  1.01827e-06
 Reference value :  1.02119e-06
 Reference value :  1.02728e-06
 Reference value :  1.04585e-06
 Reference value :  1.10761e-06
 Reference value :  1.17651e-06
 Reference value :  1.25010e-06
 Reference value :  1.25013e-06
 Reference value :  1.25020e-06
 Reference value :  1.25022e-06
 Reference value :  1.25032e-06
 Reference value :  1.25063e-06
 Reference value :  1.25136e-06
 Reference value :  1.25177e-06
 Reference value :  1.25280e-06
 Reference value :  1.25351e-06
 Reference value :  1.25400e-06
 Reference value :  1.25513e-06
 Reference value :  1.25582e-06
 Reference value :  1.25801e-06
 Reference value :  1.26263e-06
 Reference value :  1.27360e-06
 Reference value :  1.31595e-06
 Reference value :  1.35757e-06
 Reference value :  1.43821e-06
 Reference value :  1.46706e-06
 Reference value :  1.50000e-06
 Reference value :  1.50007e-06
 Reference value :  1.50012e-06
 Reference value :  1.50022e-06
 Reference value :  1.50034e-06
 Reference value :  1.50088e-06
 Reference value :  1.50164e-06
 Reference value :  1.50259e-06
 Reference value :  1.50308e-06
 Reference value :  1.50421e-06
 Reference value :  1.50492e-06
 Reference value :  1.50641e-06
 Reference value :  1.50803e-06
 Reference value :  1.50992e-06
 Reference value :  1.51109e-06
 Reference value :  1.51483e-06
 Reference value :  1.52443e-06
 Reference value :  1.55246e-06
 Reference value :  1.65755e-06
 Reference value :  1.75011e-06
 Reference value :  1.75017e-06
 Reference value :  1.75021e-06
 Reference value :  1.75032e-06
 Reference value :  1.75063e-06
 Reference value :  1.75136e-06
 Reference value :  1.75177e-06
 Reference value :  1.75280e-06
 Reference value :  1.75350e-06
 Reference value :  1.75400e-06
 Reference value :  1.75518e-06
 Reference value :  1.75669e-06
 Reference value :  1.76009e-06
 Reference value :  1.76680e-06
 Reference value :  1.81720e-06
 Reference value :  1.98374e-06
 Reference value :  2.00001e-06
 Reference value :  2.00007e-06
 Reference value :  2.00011e-06
 Reference value :  2.00016e-06
 Reference value :  2.00034e-06
 Reference value :  2.00089e-06
 Reference value :  2.00164e-06
 Reference value :  2.00259e-06
 Reference value :  2.00308e-06
 Reference value :  2.00420e-06
 Reference value :  2.00528e-06
 Reference value :  2.00675e-06
 Reference value :  2.00919e-06
 Reference value :  2.01275e-06
 Reference value :  2.01405e-06
 Reference value :  2.01655e-06
 Reference value :  2.01920e-06
 Reference value :  2.02293e-06
 Reference value :  2.02993e-06
 Reference value :  2.03516e-06
 Reference value :  2.03920e-06
 Reference value :  2.04635e-06
 Reference value :  2.05313e-06
 Reference value :  2.06093e-06
 Reference value :  2.07207e-06
 Reference value :  2.08465e-06
 Reference value :  2.10592e-06
 Reference value :  2.15696e-06
 Reference value :  2.25011e-06
 Reference value :  2.25017e-06
 Reference value :  2.25021e-06
 Reference value :  2.25026e-06
 Reference value :  2.25045e-06
 Reference value :  2.25087e-06
 Reference value :  2.25177e-06
 Reference value :  2.25280e-06
 Reference value :  2.25347e-06
 Reference value :  2.25397e-06
 Reference value :  2.25507e-06
 Reference value :  2.25576e-06
 Reference value :  2.25795e-06
 Reference value :  2.26247e-06
 Reference value :  2.27296e-06
 Reference value :  2.31406e-06
 Reference value :  2.47681e-06
 Reference value :  2.50001e-06
 Reference value :  2.50007e-06
 Reference value :  2.50011e-06
 Reference value :  2.50016e-06
 Reference value :  2.50022e-06
 Reference value :  2.50034e-06
 Reference value :  2.50053e-06
 Reference value :  2.50088e-06
 Reference value :  2.50121e-06
 Reference value :  2.50159e-06
 Reference value :  2.50205e-06
 Reference value :  2.50301e-06
 Reference value :  2.50356e-06
 Reference value :  2.50411e-06
 Reference value :  2.50490e-06
 Reference value :  2.50624e-06
 Reference value :  2.50795e-06
 Reference value :  2.50985e-06
 Reference value :  2.51100e-06
 Reference value :  2.51480e-06
 Reference value :  2.52601e-06
 Reference value :  2.56408e-06
 Reference value :  2.71042e-06
 Reference value :  2.75011e-06
 Reference value :  2.75017e-06
 Reference value :  2.75022e-06
 Reference value :  2.75032e-06
 Reference value :  2.75063e-06
 Reference value :  2.75136e-06
 Reference value :  2.75177e-06
 Reference value :  2.75280e-06
 Reference value :  2.75350e-06
 Reference value :  2.75399e-06
 Reference value :  2.75517e-06
 Reference value :  2.75593e-06
 Reference value :  2.75752e-06
 Reference value :  2.75963e-06
 Reference value :  2.76354e-06
 Reference value :  2.77234e-06
 Reference value :  2.79370e-06
 Reference value :  2.90127e-06
 Reference value :  3.00001e-06
 Reference value :  3.00007e-06
 Reference value :  3.00011e-06
 Reference value :  3.00016e-06
 Reference value :  3.00022e-06
 Reference value :  3.00034e-06
 Reference value :  3.00053e-06
 Reference value :  3.00089e-06
 Reference value :  3.00121e-06
 Reference value :  3.00163e-06
 Reference value :  3.00211e-06
 Reference value :  3.00309e-06
 Reference value :  3.00421e-06
 Reference value :  3.00523e-06
 Reference value :  3.00646e-06
 Reference value :  3.00820e-06
 Reference value :  3.01023e-06
 Reference value :  3.01121e-06
 Reference value :  3.01215e-06
 Reference value :  3.01385e-06
 Reference value :  3.01464e-06
 Reference value :  3.01580e-06
 Reference value :  3.01782e-06
 Reference value :  3.02048e-06
 Reference value :  3.02500e-06
 Reference value :  3.03783e-06
 Reference value :  3.07064e-06
 Reference value :  3.10407e-06
 Reference value :  3.13386e-06
 Reference value :  3.16966e-06
 Reference value :  3.23948e-06
 Reference value :  3.25011e-06
 Reference value :  3.25017e-06
 Reference value :  3.25021e-06
 Reference value :  3.25032e-06
 Reference value :  3.25063e-06
 Reference value :  3.25136e-06
 Reference value :  3.25177e-06
 Reference value :  3.25280e-06
 Reference value :  3.25351e-06
 Reference value :  3.25400e-06
 Reference value :  3.25513e-06
 Reference value :  3.25583e-06
 Reference value :  3.25802e-06
 Reference value :  3.26264e-06
 Reference value :  3.27364e-06
 Reference value :  3.31539e-06
 Reference value :  3.47789e-06
 Reference value :  3.50001e-06
 Reference value :  3.50007e-06
 Reference value :  3.50011e-06
 Reference value :  3.50016e-06
 Reference value :  3.50034e-06
 Reference value :  3.50088e-06
 Reference value :  3.50159e-06
 Reference value :  3.50252e-06
 Reference value :  3.50301e-06
 Reference value :  3.50412e-06
 Reference value :  3.50564e-06
 Reference value :  3.50625e-06
 Reference value :  3.50796e-06
 Reference value :  3.50988e-06
 Reference value :  3.51104e-06
 Reference value :  3.51487e-06
 Reference value :  3.52587e-06
 Reference value :  3.56229e-06
 Reference value :  3.70174e-06
 Reference value :  3.75011e-06
 Reference value :  3.75017e-06
 Reference value :  3.75020e-06
 Reference value :  3.75022e-06
 Reference value :  3.75032e-06
 Reference value :  3.75063e-06
 Reference value :  3.75136e-06
 Reference value :  3.75177e-06
 Reference value :  3.75222e-06
 Reference value :  3.75280e-06
 Reference value :  3.75350e-06
 Reference value :  3.75400e-06
 Reference value :  3.75518e-06
 Reference value :  3.75592e-06
 Reference value :  3.75752e-06
 Reference value :  3.75862e-06
 Reference value :  3.76165e-06
 Reference value :  3.76697e-06
 Reference value :  3.78039e-06
 Reference value :  3.81565e-06
 Reference value :  3.90782e-06
 Reference value :  4.00000e-06
 Reference value :  4.00003e-06
 Reference value :  4.00007e-06
 Reference value :  4.00010e-06
 Reference value :  4.00012e-06
 Reference value :  4.00022e-06
 Reference value :  4.00034e-06
 Reference value :  4.00089e-06
 Reference value :  4.00163e-06
 Reference value :  4.00259e-06
 Reference value :  4.00309e-06
 Reference value :  4.00421e-06
 Reference value :  4.00473e-06
 Reference value :  4.00523e-06
 Reference value :  4.00646e-06
 Reference value :  4.00820e-06
 Reference value :  4.01023e-06
 Reference value :  4.01240e-06
 Reference value :  4.01359e-06
 Reference value :  4.01590e-06
 Reference value :  4.01692e-06
 Reference value :  4.01926e-06
 Reference value :  4.02073e-06
 Reference value :  4.02530e-06
 Reference value :  4.03809e-06
 Reference value :  4.04941e-06
 Reference value :  4.06993e-06
 Reference value :  4.08040e-06
 Reference value :  4.08766e-06
 Reference value :  4.09228e-06
 Reference value :  4.09639e-06
 Reference value :  4.10083e-06
 Reference value :  4.13300e-06
 Reference value :  4.18659e-06
 Reference value :  4.25010e-06
 Reference value :  4.25013e-06
 Reference value :  4.25020e-06
 Reference value :  4.25026e-06
 Reference value :  4.25061e-06
 Reference value :  4.25111e-06
 Reference value :  4.25151e-06
 Reference value :  4.25195e-06
 Reference value :  4.25240e-06
 Reference value :  4.25306e-06
 Reference value :  4.25425e-06
 Reference value :  4.25539e-06
 Reference value :  4.25613e-06
 Reference value :  4.25841e-06
 Reference value :  4.26345e-06
 Reference value :  4.26602e-06
 Reference value :  4.27254e-06
 Reference value :  4.28372e-06
 Reference value :  4.31464e-06
 Reference value :  4.33229e-06
 Reference value :  4.36734e-06
 Reference value :  4.42557e-06
 Reference value :  4.50000e-06
 Reference value :  4.50003e-06
 Reference value :  4.50010e-06
 Reference value :  4.50012e-06
 Reference value :  4.50022e-06
 Reference value :  4.50057e-06
 Reference value :  4.50096e-06
 Reference value :  4.50185e-06
 Reference value :  4.50294e-06
 Reference value :  4.50347e-06
 Reference value :  4.50469e-06
 Reference value :  4.50604e-06
 Reference value :  4.50772e-06
 Reference value :  4.50965e-06
 Reference value :  4.51063e-06
 Reference value :  4.51348e-06
 Reference value :  4.52004e-06
 Reference value :  4.55842e-06
 Reference value :  4.68091e-06
 Reference value :  4.75011e-06
 Reference value :  4.75017e-06
 Reference value :  4.75021e-06
 Reference value :  4.75026e-06
 Reference value :  4.75042e-06
 Reference value :  4.75061e-06
 Reference value :  4.75111e-06
 Reference value :  4.75151e-06
 Reference value :  4.75239e-06
 Reference value :  4.75306e-06
 Reference value :  4.75426e-06
 Reference value :  4.75485e-06
 Reference value :  4.75544e-06
 Reference value :  4.75617e-06
 Reference value :  4.75773e-06
 Reference value :  4.75983e-06
 Reference value :  4.76180e-06
 Reference value :  4.77219e-06
 Reference value :  4.81069e-06
 Reference value :  4.96202e-06
 Reference value :  5.00001e-06
 Reference value :  5.00007e-06
 Reference value :  5.00011e-06
 Reference value :  5.00016e-06
 Reference value :  5.00034e-06
 Reference value :  5.00096e-06
 Reference value :  5.00185e-06
 Reference value :  5.00242e-06
 Reference value :  5.00294e-06
 Reference value :  5.00349e-06
 Reference value :  5.00474e-06
 Reference value :  5.00530e-06
 Reference value :  5.00662e-06
 Reference value :  5.00849e-06
 Reference value :  5.01063e-06
 Reference value :  5.01173e-06
 Reference value :  5.01285e-06
 Reference value :  5.01371e-06
 Reference value :  5.01551e-06
 Reference value :  5.01653e-06
 Reference value :  5.01847e-06
 Reference value :  5.01957e-06
 Reference value :  5.02343e-06
 Reference value :  5.03202e-06
 Reference value :  5.03618e-06
 Reference value :  5.03922e-06
 Reference value :  5.04237e-06
 Reference value :  5.05047e-06
 Reference value :  5.06754e-06
 Reference value :  5.08161e-06
 Reference value :  5.11254e-06
 Reference value :  5.16873e-06
 Reference value :  5.25010e-06
 Reference value :  5.25013e-06
 Reference value :  5.25017e-06
 Reference value :  5.25020e-06
 Reference value :  5.25022e-06
 Reference value :  5.25026e-06
 Reference value :  5.25042e-06
 Reference value :  5.25079e-06
 Reference value :  5.25110e-06
 Reference value :  5.25152e-06
 Reference value :  5.25242e-06
 Reference value :  5.25309e-06
 Reference value :  5.25377e-06
 Reference value :  5.25430e-06
 Reference value :  5.25547e-06
 Reference value :  5.25622e-06
 Reference value :  5.25853e-06
 Reference value :  5.26369e-06
 Reference value :  5.27812e-06
 Reference value :  5.33032e-06
 Reference value :  5.50000e-06
 Reference value :  5.50003e-06
 Reference value :  5.50010e-06
 Reference value :  5.50012e-06
 Reference value :  5.50022e-06
 Reference value :  5.50057e-06
 Reference value :  5.50096e-06
 Reference value :  5.50185e-06
 Reference value :  5.50294e-06
 Reference value :  5.50348e-06
 Reference value :  5.50473e-06
 Reference value :  5.50548e-06
 Reference value :  5.50606e-06
 Reference value :  5.50679e-06
 Reference value :  5.50858e-06
 Reference value :  5.51058e-06
 Reference value :  5.51190e-06
 Reference value :  5.51584e-06
 Reference value :  5.52564e-06
 Reference value :  5.55430e-06
 Reference value :  5.66286e-06
 Reference value :  5.75011e-06
 Reference value :  5.75017e-06
 Reference value :  5.75021e-06
 Reference value :  5.75026e-06
 Reference value :  5.75032e-06
 Reference value :  5.75061e-06
 Reference value :  5.75111e-06
 Reference value :  5.75151e-06
 Reference value :  5.75240e-06
 Reference value :  5.75306e-06
 Reference value :  5.75426e-06
 Reference value :  5.75544e-06
 Reference value :  5.75617e-06
 Reference value :  5.75693e-06
 Reference value :  5.76066e-06
 Reference value :  5.76802e-06
 Reference value :  5.79327e-06
 Reference value :  5.88056e-06
 Reference value :  6.00001e-06
 Reference value :  6.00007e-06
 Reference value :  6.00011e-06
 Reference value :  6.00016e-06
 Reference value :  6.00022e-06
 Reference value :  6.00057e-06
 Reference value :  6.00138e-06
 Reference value :  6.00241e-06
 Reference value :  6.00294e-06
 Reference value :  6.00348e-06
 Reference value :  6.00468e-06
 Reference value :  6.00519e-06
 Reference value :  6.00576e-06
 Reference value :  6.00651e-06
 Reference value :  6.00729e-06
 Reference value :  6.00879e-06
 Reference value :  6.01069e-06
 Reference value :  6.01216e-06
 Reference value :  6.01376e-06
 Reference value :  6.01498e-06
 Reference value :  6.01628e-06
 Reference value :  6.01753e-06
 Reference value :  6.01870e-06
 Reference value :  6.02213e-06
 Reference value :  6.02815e-06
 Reference value :  6.04228e-06
 Reference value :  6.07237e-06
 Reference value :  6.15200e-06
 Reference value :  6.25010e-06
 Reference value :  6.25013e-06
 Reference value :  6.25020e-06
 Reference value :  6.25022e-06
 Reference value :  6.25032e-06
 Reference value :  6.25061e-06
 Reference value :  6.25079e-06
 Reference value :  6.25152e-06
 Reference value :  6.25242e-06
 Reference value :  6.25376e-06
 Reference value :  6.25430e-06
 Reference value :  6.25491e-06
 Reference value :  6.25624e-06
 Reference value :  6.25860e-06
 Reference value :  6.26381e-06
 Reference value :  6.27853e-06
 Reference value :  6.33073e-06
 Reference value :  6.50000e-06
 Reference value :  6.50003e-06
 Reference value :  6.50010e-06
 Reference value :  6.50012e-06
 Reference value :  6.50022e-06
 Reference value :  6.50034e-06
 Reference value :  6.50096e-06
 Reference value :  6.50185e-06
 Reference value :  6.50294e-06
 Reference value :  6.50348e-06
 Reference value :  6.50472e-06
 Reference value :  6.50548e-06
 Reference value :  6.50606e-06
 Reference value :  6.50769e-06
 Reference value :  6.50858e-06
 Reference value :  6.50962e-06
 Reference value :  6.51191e-06
 Reference value :  6.51587e-06
 Reference value :  6.52569e-06
 Reference value :  6.55446e-06
 Reference value :  6.66351e-06
 Reference value :  6.75011e-06
 Reference value :  6.75017e-06
 Reference value :  6.75021e-06
 Reference value :  6.75026e-06
 Reference value :  6.75042e-06
 Reference value :  6.75082e-06
 Reference value :  6.75151e-06
 Reference value :  6.75195e-06
 Reference value :  6.75240e-06
 Reference value :  6.75306e-06
 Reference value :  6.75373e-06
 Reference value :  6.75425e-06
 Reference value :  6.75485e-06
 Reference value :  6.75616e-06
 Reference value :  6.75844e-06
 Reference value :  6.76352e-06
 Reference value :  6.77697e-06
 Reference value :  6.82270e-06
 Reference value :  6.98636e-06
 Reference value :  7.00001e-06
 Reference value :  7.00003e-06
 Reference value :  7.00007e-06
 Reference value :  7.00011e-06
 Reference value :  7.00016e-06
 Reference value :  7.00034e-06
 Reference value :  7.00096e-06
 Reference value :  7.00185e-06
 Reference value :  7.00294e-06
 Reference value :  7.00348e-06
 Reference value :  7.00468e-06
 Reference value :  7.00518e-06
 Reference value :  7.00650e-06
 Reference value :  7.00727e-06
 Reference value :  7.01066e-06
 Reference value :  7.01213e-06
 Reference value :  7.01372e-06
 Reference value :  7.01491e-06
 Reference value :  7.01617e-06
 Reference value :  7.01725e-06
 Reference value :  7.01970e-06
 Reference value :  7.02151e-06
 Reference value :  7.02680e-06
 Reference value :  7.03977e-06
 Reference value :  7.07823e-06
 Reference value :  7.16761e-06
 Reference value :  7.25010e-06
 Reference value :  7.25013e-06
 Reference value :  7.25017e-06
 Reference value :  7.25021e-06
 Reference value :  7.25026e-06
 Reference value :  7.25042e-06
 Reference value :  7.25079e-06
 Reference value :  7.25152e-06
 Reference value :  7.25242e-06
 Reference value :  7.25376e-06
 Reference value :  7.25430e-06
 Reference value :  7.25547e-06
 Reference value :  7.25625e-06
 Reference value :  7.25862e-06
 Reference value :  7.26384e-06
 Reference value :  7.27860e-06
 Reference value :  7.33073e-06
 Reference value :  7.50000e-06
 Reference value :  7.50001e-06
 Reference value :  7.50007e-06
 Reference value :  7.50011e-06
 Reference value :  7.50016e-06
 Reference value :  7.50034e-06
 Reference value :  7.50096e-06
 Reference value :  7.50185e-06
 Reference value :  7.50242e-06
 Reference value :  7.50348e-06
 Reference value :  7.50473e-06
 Reference value :  7.50548e-06
 Reference value :  7.50606e-06
 Reference value :  7.50769e-06
 Reference value :  7.50858e-06
 Reference value :  7.51058e-06
 Reference value :  7.51191e-06
 Reference value :  7.51585e-06
 Reference value :  7.52563e-06
 Reference value :  7.55415e-06
 Reference value :  7.66208e-06
 Reference value :  7.75011e-06
 Reference value :  7.75017e-06
 Reference value :  7.75021e-06
 Reference value :  7.75026e-06
 Reference value :  7.75042e-06
 Reference value :  7.75082e-06
 Reference value :  7.75151e-06
 Reference value :  7.75240e-06
 Reference value :  7.75306e-06
 Reference value :  7.75373e-06
 Reference value :  7.75425e-06
 Reference value :  7.75543e-06
 Reference value :  7.75616e-06
 Reference value :  7.75845e-06
 Reference value :  7.76352e-06
 Reference value :  7.77697e-06
 Reference value :  7.82259e-06
 Reference value :  7.98152e-06
 Reference value :  8.00001e-06
 Reference value :  8.00007e-06
 Reference value :  8.00011e-06
 Reference value :  8.00016e-06
 Reference value :  8.00034e-06
 Reference value :  8.00096e-06
 Reference value :  8.00185e-06
 Reference value :  8.00294e-06
 Reference value :  8.00349e-06
 Reference value :  8.00469e-06
 Reference value :  8.00519e-06
 Reference value :  8.00651e-06
 Reference value :  8.00729e-06
 Reference value :  8.00803e-06
 Reference value :  8.00987e-06
 Reference value :  8.01303e-06
 Reference value :  8.02446e-06
 Reference value :  8.06766e-06
 Reference value :  8.24048e-06
 Reference value :  8.25011e-06
 Reference value :  8.25017e-06
 Reference value :  8.25021e-06
 Reference value :  8.25026e-06
 Reference value :  8.25045e-06
 Reference value :  8.25083e-06
 Reference value :  8.25160e-06
 Reference value :  8.25250e-06
 Reference value :  8.25395e-06
 Reference value :  8.25580e-06
 Reference value :  8.25845e-06
 Reference value :  8.26321e-06
 Reference value :  8.27465e-06
 Reference value :  8.32043e-06
 Reference value :  8.50000e-06
 Reference value :  8.50003e-06
 Reference value :  8.50010e-06
 Reference value :  8.50012e-06
 Reference value :  8.50022e-06
 Reference value :  8.50057e-06
 Reference value :  8.50141e-06
 Reference value :  8.50196e-06
 Reference value :  8.50309e-06
 Reference value :  8.50367e-06
 Reference value :  8.50473e-06
 Reference value :  8.50594e-06
 Reference value :  8.50803e-06
 Reference value :  8.51279e-06
 Reference value :  8.51934e-06
 Reference value :  8.52535e-06
 Reference value :  8.52856e-06
 Reference value :  8.53126e-06
 Reference value :  8.53335e-06
 Reference value :  8.53533e-06
 Reference value :  8.53683e-06
 Reference value :  8.53815e-06
 Reference value :  8.54078e-06
 Reference value :  8.54382e-06
 Reference value :  8.54499e-06
 Reference value :  8.54707e-06
 Reference value :  8.55055e-06
 Reference value :  8.56045e-06
 Reference value :  8.56649e-06
 Reference value :  8.58018e-06
 Reference value :  8.60382e-06
 Reference value :  8.67258e-06
 Reference value :  8.71996e-06
 Reference value :  8.75011e-06
 Reference value :  8.75017e-06
 Reference value :  8.75021e-06
 Reference value :  8.75032e-06
 Reference value :  8.75063e-06
 Reference value :  8.75136e-06
 Reference value :  8.75178e-06
 Reference value :  8.75281e-06
 Reference value :  8.75350e-06
 Reference value :  8.75400e-06
 Reference value :  8.75458e-06
 Reference value :  8.75582e-06
 Reference value :  8.75799e-06
 Reference value :  8.76259e-06
 Reference value :  8.77353e-06
 Reference value :  8.80633e-06
 Reference value :  8.82570e-06
 Reference value :  8.83935e-06
 Reference value :  8.84939e-06
 Reference value :  8.85963e-06
 Reference value :  8.86783e-06
 Reference value :  8.87481e-06
 Reference value :  8.89172e-06
 Reference value :  8.91674e-06
 Reference value :  9.00000e-06
No. of Data Rows : 1361
ngspice-44 done
