
Note: Compatibility modes selected: hs a


Circuit: ** sch_path: /home/issa/cace/sar-adc-using-sky130-pdk/runs/run_2025-09-19_21-35-32/parameters/sampling_rate/run_0/sampling_rate.sch

option SCALE: Scale is set to 1e-06 for instance and model parameters
option SCALE: Scale is set to 1e-06 for instance and model parameters
option SCALE: Scale is set to 1e-06 for instance and model parameters
option SCALE: Scale is set to 1e-06 for instance and model parameters
Doing analysis at TEMP = 27.000000 and TNOM = 27.000000

Using KLU as Direct Linear Solver
 Reference value :  0.00000e+00
 Reference value :  1.00000e-12
 Reference value :  2.00000e-12
 Reference value :  4.00000e-12
 Reference value :  8.00000e-12
 Reference value :  1.60000e-11
 Reference value :  3.20000e-11
 Reference value :  6.40000e-11
 Reference value :  1.00000e-10
 Reference value :  1.01503e-10
 Reference value :  1.04508e-10
 Reference value :  1.10520e-10
 Reference value :  1.22542e-10
 Reference value :  1.46587e-10
 Reference value :  1.94677e-10
 Reference value :  2.90857e-10
 Reference value :  4.36270e-10
 Reference value :  7.02948e-10
 Reference value :  1.20545e-09
 Reference value :  1.70422e-09
 Reference value :  2.47410e-09
 Reference value :  3.11199e-09
 Reference value :  3.80778e-09
 Reference value :  4.60808e-09
 Reference value :  5.35816e-09
 Reference value :  6.05184e-09
 Reference value :  6.79928e-09
 Reference value :  7.53489e-09
 Reference value :  8.36097e-09
 Reference value :  9.32632e-09
 Reference value :  1.03542e-08
 Reference value :  1.15335e-08
 Reference value :  1.28057e-08
 Reference value :  1.40771e-08
 Reference value :  1.56353e-08
 Reference value :  1.72589e-08
 Reference value :  1.85803e-08
 Reference value :  1.99901e-08
 Reference value :  2.13315e-08
 Reference value :  2.31364e-08
 Reference value :  2.51487e-08
 Reference value :  2.69849e-08
 Reference value :  2.94110e-08
 Reference value :  3.24991e-08
 Reference value :  3.65184e-08
 Reference value :  4.19844e-08
 Reference value :  4.83297e-08
 Reference value :  5.65755e-08
 Reference value :  6.54339e-08
 Reference value :  7.73978e-08
 Reference value :  9.25558e-08
 Reference value :  1.14882e-07
 Reference value :  1.44189e-07
 Reference value :  1.89423e-07
 Reference value :  2.50100e-07
 Reference value :  2.50110e-07
 Reference value :  2.50130e-07
 Reference value :  2.50170e-07
 Reference value :  2.50200e-07
 Reference value :  2.50201e-07
 Reference value :  2.50202e-07
 Reference value :  2.50204e-07
 Reference value :  2.50208e-07
 Reference value :  2.50216e-07
 Reference value :  2.50233e-07
 Reference value :  2.50267e-07
 Reference value :  2.50335e-07
 Reference value :  2.50414e-07
 Reference value :  2.50573e-07
 Reference value :  2.50730e-07
 Reference value :  2.51042e-07
 Reference value :  2.51385e-07
 Reference value :  2.51894e-07
 Reference value :  2.52462e-07
 Reference value :  2.53300e-07
 Reference value :  2.54132e-07
 Reference value :  2.55066e-07
 Reference value :  2.55788e-07
 Reference value :  2.56598e-07
 Reference value :  2.57525e-07
 Reference value :  2.58663e-07
 Reference value :  2.59916e-07
 Reference value :  2.61997e-07
 Reference value :  2.64115e-07
 Reference value :  2.67604e-07
 Reference value :  2.72325e-07
 Reference value :  2.81767e-07
 Reference value :  2.98139e-07
 Reference value :  3.26307e-07
 Reference value :  3.79067e-07
 Reference value :  4.69759e-07
 Reference value :  5.00000e-07
 Reference value :  5.00010e-07
 Reference value :  5.00030e-07
 Reference value :  5.00070e-07
 Reference value :  5.00100e-07
 Reference value :  5.00104e-07
 Reference value :  5.00112e-07
 Reference value :  5.00129e-07
 Reference value :  5.00162e-07
 Reference value :  5.00229e-07
 Reference value :  5.00362e-07
 Reference value :  5.00537e-07
 Reference value :  5.00888e-07
 Reference value :  5.01501e-07
 Reference value :  5.02193e-07
 Reference value :  5.02773e-07
 Reference value :  5.03492e-07
 Reference value :  5.04166e-07
 Reference value :  5.05153e-07
 Reference value :  5.06132e-07
 Reference value :  5.07121e-07
 Reference value :  5.08561e-07
 Reference value :  5.09926e-07
 Reference value :  5.11838e-07
 Reference value :  5.14098e-07
 Reference value :  5.15972e-07
 Reference value :  5.17943e-07
 Reference value :  5.20015e-07
 Reference value :  5.22496e-07
 Reference value :  5.25427e-07
 Reference value :  5.28148e-07
 Reference value :  5.33588e-07
 Reference value :  5.41482e-07
 Reference value :  5.51611e-07
 Reference value :  5.71867e-07
 Reference value :  6.06981e-07
 Reference value :  6.77210e-07
 Reference value :  7.50100e-07
 Reference value :  7.50110e-07
 Reference value :  7.50130e-07
 Reference value :  7.50170e-07
 Reference value :  7.50200e-07
 Reference value :  7.50201e-07
 Reference value :  7.50202e-07
 Reference value :  7.50205e-07
 Reference value :  7.50211e-07
 Reference value :  7.50224e-07
 Reference value :  7.50248e-07
 Reference value :  7.50297e-07
 Reference value :  7.50395e-07
 Reference value :  7.50590e-07
 Reference value :  7.50977e-07
 Reference value :  7.51389e-07
 Reference value :  7.51911e-07
 Reference value :  7.52518e-07
 Reference value :  7.53316e-07
 Reference value :  7.54225e-07
 Reference value :  7.55412e-07
 Reference value :  7.56512e-07
 Reference value :  7.57517e-07
 Reference value :  7.58601e-07
 Reference value :  7.59800e-07
 Reference value :  7.61093e-07
 Reference value :  7.62350e-07
 Reference value :  7.63802e-07
 Reference value :  7.66022e-07
 Reference value :  7.68340e-07
 Reference value :  7.72292e-07
 Reference value :  7.79774e-07
 Reference value :  7.91206e-07
 Reference value :  8.12934e-07
 Reference value :  8.49211e-07
 Reference value :  9.12878e-07
 Reference value :  1.00000e-06
 Reference value :  1.00001e-06
 Reference value :  1.00003e-06
 Reference value :  1.00007e-06
 Reference value :  1.00010e-06
 Reference value :  1.00010e-06
 Reference value :  1.00011e-06
 Reference value :  1.00013e-06
 Reference value :  1.00016e-06
 Reference value :  1.00023e-06
 Reference value :  1.00036e-06
 Reference value :  1.00054e-06
 Reference value :  1.00089e-06
 Reference value :  1.00150e-06
 Reference value :  1.00219e-06
 Reference value :  1.00281e-06
 Reference value :  1.00346e-06
 Reference value :  1.00414e-06
 Reference value :  1.00499e-06
 Reference value :  1.00588e-06
 Reference value :  1.00675e-06
 Reference value :  1.00765e-06
 Reference value :  1.00863e-06
 Reference value :  1.00966e-06
 Reference value :  1.01059e-06
 Reference value :  1.01205e-06
 Reference value :  1.01354e-06
 Reference value :  1.01595e-06
 Reference value :  1.01768e-06
 Reference value :  1.01952e-06
 Reference value :  1.02118e-06
 Reference value :  1.02265e-06
 Reference value :  1.02413e-06
 Reference value :  1.02572e-06
 Reference value :  1.02718e-06
 Reference value :  1.02898e-06
 Reference value :  1.03114e-06
 Reference value :  1.03350e-06
 Reference value :  1.03783e-06
 Reference value :  1.04393e-06
 Reference value :  1.05449e-06
 Reference value :  1.07274e-06
 Reference value :  1.10245e-06
 Reference value :  1.15530e-06
 Reference value :  1.22889e-06
 Reference value :  1.25010e-06
 Reference value :  1.25011e-06
 Reference value :  1.25013e-06
 Reference value :  1.25017e-06
 Reference value :  1.25020e-06
 Reference value :  1.25020e-06
 Reference value :  1.25020e-06
 Reference value :  1.25021e-06
 Reference value :  1.25021e-06
 Reference value :  1.25022e-06
 Reference value :  1.25025e-06
 Reference value :  1.25030e-06
 Reference value :  1.25039e-06
 Reference value :  1.25059e-06
 Reference value :  1.25094e-06
 Reference value :  1.25136e-06
 Reference value :  1.25188e-06
 Reference value :  1.25249e-06
 Reference value :  1.25326e-06
 Reference value :  1.25414e-06
 Reference value :  1.25528e-06
 Reference value :  1.25619e-06
 Reference value :  1.25715e-06
 Reference value :  1.25822e-06
 Reference value :  1.25979e-06
 Reference value :  1.26131e-06
 Reference value :  1.26378e-06
 Reference value :  1.26678e-06
 Reference value :  1.27219e-06
 Reference value :  1.28301e-06
 Reference value :  1.30226e-06
 Reference value :  1.34059e-06
 Reference value :  1.41291e-06
 Reference value :  1.48946e-06
 Reference value :  1.50000e-06
 Reference value :  1.50001e-06
 Reference value :  1.50003e-06
 Reference value :  1.50007e-06
 Reference value :  1.50010e-06
 Reference value :  1.50010e-06
 Reference value :  1.50011e-06
 Reference value :  1.50013e-06
 Reference value :  1.50016e-06
 Reference value :  1.50023e-06
 Reference value :  1.50036e-06
 Reference value :  1.50053e-06
 Reference value :  1.50087e-06
 Reference value :  1.50144e-06
 Reference value :  1.50221e-06
 Reference value :  1.50284e-06
 Reference value :  1.50358e-06
 Reference value :  1.50424e-06
 Reference value :  1.50526e-06
 Reference value :  1.50627e-06
 Reference value :  1.50721e-06
 Reference value :  1.50858e-06
 Reference value :  1.51002e-06
 Reference value :  1.51134e-06
 Reference value :  1.51283e-06
 Reference value :  1.51442e-06
 Reference value :  1.51611e-06
 Reference value :  1.51780e-06
 Reference value :  1.52023e-06
 Reference value :  1.52295e-06
 Reference value :  1.52798e-06
 Reference value :  1.53583e-06
 Reference value :  1.54982e-06
 Reference value :  1.57631e-06
 Reference value :  1.62343e-06
 Reference value :  1.71439e-06
 Reference value :  1.75010e-06
 Reference value :  1.75011e-06
 Reference value :  1.75013e-06
 Reference value :  1.75017e-06
 Reference value :  1.75020e-06
 Reference value :  1.75020e-06
 Reference value :  1.75020e-06
 Reference value :  1.75021e-06
 Reference value :  1.75021e-06
 Reference value :  1.75022e-06
 Reference value :  1.75025e-06
 Reference value :  1.75029e-06
 Reference value :  1.75039e-06
 Reference value :  1.75058e-06
 Reference value :  1.75092e-06
 Reference value :  1.75135e-06
 Reference value :  1.75187e-06
 Reference value :  1.75248e-06
 Reference value :  1.75324e-06
 Reference value :  1.75411e-06
 Reference value :  1.75529e-06
 Reference value :  1.75619e-06
 Reference value :  1.75714e-06
 Reference value :  1.75818e-06
 Reference value :  1.75930e-06
 Reference value :  1.76052e-06
 Reference value :  1.76182e-06
 Reference value :  1.76322e-06
 Reference value :  1.76540e-06
 Reference value :  1.76773e-06
 Reference value :  1.77129e-06
 Reference value :  1.77688e-06
 Reference value :  1.78807e-06
 Reference value :  1.81043e-06
 Reference value :  1.85516e-06
 Reference value :  1.94461e-06
 Reference value :  2.00000e-06
 Reference value :  2.00001e-06
 Reference value :  2.00003e-06
 Reference value :  2.00007e-06
 Reference value :  2.00010e-06
 Reference value :  2.00010e-06
 Reference value :  2.00011e-06
 Reference value :  2.00013e-06
 Reference value :  2.00016e-06
 Reference value :  2.00023e-06
 Reference value :  2.00036e-06
 Reference value :  2.00053e-06
 Reference value :  2.00087e-06
 Reference value :  2.00144e-06
 Reference value :  2.00221e-06
 Reference value :  2.00288e-06
 Reference value :  2.00356e-06
 Reference value :  2.00427e-06
 Reference value :  2.00513e-06
 Reference value :  2.00590e-06
 Reference value :  2.00673e-06
 Reference value :  2.00780e-06
 Reference value :  2.00879e-06
 Reference value :  2.00972e-06
 Reference value :  2.01077e-06
 Reference value :  2.01213e-06
 Reference value :  2.01366e-06
 Reference value :  2.01582e-06
 Reference value :  2.01736e-06
 Reference value :  2.01906e-06
 Reference value :  2.02082e-06
 Reference value :  2.02217e-06
 Reference value :  2.02347e-06
 Reference value :  2.02486e-06
 Reference value :  2.02631e-06
 Reference value :  2.02798e-06
 Reference value :  2.02965e-06
 Reference value :  2.03221e-06
 Reference value :  2.03484e-06
 Reference value :  2.04011e-06
 Reference value :  2.04873e-06
 Reference value :  2.06236e-06
 Reference value :  2.08478e-06
 Reference value :  2.12283e-06
 Reference value :  2.17588e-06
 Reference value :  2.25010e-06
 Reference value :  2.25011e-06
 Reference value :  2.25013e-06
 Reference value :  2.25017e-06
 Reference value :  2.25020e-06
 Reference value :  2.25020e-06
 Reference value :  2.25020e-06
 Reference value :  2.25021e-06
 Reference value :  2.25021e-06
 Reference value :  2.25022e-06
 Reference value :  2.25025e-06
 Reference value :  2.25030e-06
 Reference value :  2.25039e-06
 Reference value :  2.25059e-06
 Reference value :  2.25094e-06
 Reference value :  2.25136e-06
 Reference value :  2.25188e-06
 Reference value :  2.25249e-06
 Reference value :  2.25325e-06
 Reference value :  2.25413e-06
 Reference value :  2.25527e-06
 Reference value :  2.25619e-06
 Reference value :  2.25715e-06
 Reference value :  2.25822e-06
 Reference value :  2.25979e-06
 Reference value :  2.26131e-06
 Reference value :  2.26378e-06
 Reference value :  2.26679e-06
 Reference value :  2.27218e-06
 Reference value :  2.28298e-06
 Reference value :  2.30203e-06
 Reference value :  2.33995e-06
 Reference value :  2.40867e-06
 Reference value :  2.47068e-06
 Reference value :  2.50000e-06
 Reference value :  2.50001e-06
 Reference value :  2.50003e-06
 Reference value :  2.50007e-06
 Reference value :  2.50010e-06
 Reference value :  2.50010e-06
 Reference value :  2.50011e-06
 Reference value :  2.50013e-06
 Reference value :  2.50016e-06
 Reference value :  2.50023e-06
 Reference value :  2.50036e-06
 Reference value :  2.50053e-06
 Reference value :  2.50087e-06
 Reference value :  2.50144e-06
 Reference value :  2.50221e-06
 Reference value :  2.50284e-06
 Reference value :  2.50357e-06
 Reference value :  2.50424e-06
 Reference value :  2.50525e-06
 Reference value :  2.50626e-06
 Reference value :  2.50722e-06
 Reference value :  2.50859e-06
 Reference value :  2.51003e-06
 Reference value :  2.51135e-06
 Reference value :  2.51281e-06
 Reference value :  2.51438e-06
 Reference value :  2.51607e-06
 Reference value :  2.51777e-06
 Reference value :  2.52006e-06
 Reference value :  2.52304e-06
 Reference value :  2.52821e-06
 Reference value :  2.53692e-06
 Reference value :  2.55298e-06
 Reference value :  2.58362e-06
 Reference value :  2.64129e-06
 Reference value :  2.75010e-06
 Reference value :  2.75011e-06
 Reference value :  2.75013e-06
 Reference value :  2.75017e-06
 Reference value :  2.75020e-06
 Reference value :  2.75020e-06
 Reference value :  2.75020e-06
 Reference value :  2.75021e-06
 Reference value :  2.75021e-06
 Reference value :  2.75022e-06
 Reference value :  2.75025e-06
 Reference value :  2.75030e-06
 Reference value :  2.75039e-06
 Reference value :  2.75059e-06
 Reference value :  2.75094e-06
 Reference value :  2.75136e-06
 Reference value :  2.75188e-06
 Reference value :  2.75249e-06
 Reference value :  2.75325e-06
 Reference value :  2.75413e-06
 Reference value :  2.75531e-06
 Reference value :  2.75623e-06
 Reference value :  2.75719e-06
 Reference value :  2.75822e-06
 Reference value :  2.75933e-06
 Reference value :  2.76055e-06
 Reference value :  2.76184e-06
 Reference value :  2.76324e-06
 Reference value :  2.76536e-06
 Reference value :  2.76769e-06
 Reference value :  2.77129e-06
 Reference value :  2.77696e-06
 Reference value :  2.78830e-06
 Reference value :  2.81099e-06
 Reference value :  2.85637e-06
 Reference value :  2.94712e-06
 Reference value :  3.00000e-06
 Reference value :  3.00001e-06
 Reference value :  3.00003e-06
 Reference value :  3.00007e-06
 Reference value :  3.00010e-06
 Reference value :  3.00010e-06
 Reference value :  3.00011e-06
 Reference value :  3.00013e-06
 Reference value :  3.00016e-06
 Reference value :  3.00023e-06
 Reference value :  3.00036e-06
 Reference value :  3.00053e-06
 Reference value :  3.00087e-06
 Reference value :  3.00144e-06
 Reference value :  3.00221e-06
 Reference value :  3.00288e-06
 Reference value :  3.00355e-06
 Reference value :  3.00426e-06
 Reference value :  3.00513e-06
 Reference value :  3.00589e-06
 Reference value :  3.00673e-06
 Reference value :  3.00780e-06
 Reference value :  3.00878e-06
 Reference value :  3.00971e-06
 Reference value :  3.01075e-06
 Reference value :  3.01209e-06
 Reference value :  3.01365e-06
 Reference value :  3.01520e-06
 Reference value :  3.01692e-06
 Reference value :  3.01853e-06
 Reference value :  3.02024e-06
 Reference value :  3.02149e-06
 Reference value :  3.02266e-06
 Reference value :  3.02409e-06
 Reference value :  3.02557e-06
 Reference value :  3.02694e-06
 Reference value :  3.02866e-06
 Reference value :  3.03082e-06
 Reference value :  3.03315e-06
 Reference value :  3.03750e-06
 Reference value :  3.04388e-06
 Reference value :  3.05476e-06
 Reference value :  3.07345e-06
 Reference value :  3.10154e-06
 Reference value :  3.13351e-06
 Reference value :  3.16032e-06
 Reference value :  3.19260e-06
 Reference value :  3.22617e-06
 Reference value :  3.25010e-06
 Reference value :  3.25011e-06
 Reference value :  3.25013e-06
 Reference value :  3.25017e-06
 Reference value :  3.25020e-06
 Reference value :  3.25020e-06
 Reference value :  3.25020e-06
 Reference value :  3.25021e-06
 Reference value :  3.25021e-06
 Reference value :  3.25022e-06
 Reference value :  3.25025e-06
 Reference value :  3.25029e-06
 Reference value :  3.25039e-06
 Reference value :  3.25058e-06
 Reference value :  3.25092e-06
 Reference value :  3.25134e-06
 Reference value :  3.25187e-06
 Reference value :  3.25248e-06
 Reference value :  3.25323e-06
 Reference value :  3.25411e-06
 Reference value :  3.25525e-06
 Reference value :  3.25614e-06
 Reference value :  3.25709e-06
 Reference value :  3.25815e-06
 Reference value :  3.25972e-06
 Reference value :  3.26118e-06
 Reference value :  3.26371e-06
 Reference value :  3.26658e-06
 Reference value :  3.27189e-06
 Reference value :  3.28251e-06
 Reference value :  3.30141e-06
 Reference value :  3.33921e-06
 Reference value :  3.41083e-06
 Reference value :  3.50000e-06
 Reference value :  3.50001e-06
 Reference value :  3.50003e-06
 Reference value :  3.50007e-06
 Reference value :  3.50010e-06
 Reference value :  3.50010e-06
 Reference value :  3.50011e-06
 Reference value :  3.50013e-06
 Reference value :  3.50016e-06
 Reference value :  3.50023e-06
 Reference value :  3.50036e-06
 Reference value :  3.50053e-06
 Reference value :  3.50087e-06
 Reference value :  3.50145e-06
 Reference value :  3.50221e-06
 Reference value :  3.50283e-06
 Reference value :  3.50357e-06
 Reference value :  3.50423e-06
 Reference value :  3.50524e-06
 Reference value :  3.50620e-06
 Reference value :  3.50717e-06
 Reference value :  3.50855e-06
 Reference value :  3.50997e-06
 Reference value :  3.51130e-06
 Reference value :  3.51279e-06
 Reference value :  3.51431e-06
 Reference value :  3.51599e-06
 Reference value :  3.51783e-06
 Reference value :  3.51974e-06
 Reference value :  3.52355e-06
 Reference value :  3.53119e-06
 Reference value :  3.54448e-06
 Reference value :  3.57105e-06
 Reference value :  3.62225e-06
 Reference value :  3.72463e-06
 Reference value :  3.75010e-06
 Reference value :  3.75011e-06
 Reference value :  3.75013e-06
 Reference value :  3.75017e-06
 Reference value :  3.75020e-06
 Reference value :  3.75020e-06
 Reference value :  3.75020e-06
 Reference value :  3.75021e-06
 Reference value :  3.75021e-06
 Reference value :  3.75022e-06
 Reference value :  3.75025e-06
 Reference value :  3.75030e-06
 Reference value :  3.75039e-06
 Reference value :  3.75059e-06
 Reference value :  3.75094e-06
 Reference value :  3.75136e-06
 Reference value :  3.75188e-06
 Reference value :  3.75249e-06
 Reference value :  3.75325e-06
 Reference value :  3.75413e-06
 Reference value :  3.75531e-06
 Reference value :  3.75623e-06
 Reference value :  3.75719e-06
 Reference value :  3.75822e-06
 Reference value :  3.75933e-06
 Reference value :  3.76056e-06
 Reference value :  3.76183e-06
 Reference value :  3.76323e-06
 Reference value :  3.76536e-06
 Reference value :  3.76768e-06
 Reference value :  3.77127e-06
 Reference value :  3.77694e-06
 Reference value :  3.78828e-06
 Reference value :  3.81097e-06
 Reference value :  3.85633e-06
 Reference value :  3.94705e-06
 Reference value :  4.00000e-06
 Reference value :  4.00001e-06
 Reference value :  4.00003e-06
 Reference value :  4.00007e-06
 Reference value :  4.00010e-06
 Reference value :  4.00010e-06
 Reference value :  4.00011e-06
 Reference value :  4.00013e-06
 Reference value :  4.00016e-06
 Reference value :  4.00023e-06
 Reference value :  4.00036e-06
 Reference value :  4.00053e-06
 Reference value :  4.00087e-06
 Reference value :  4.00144e-06
 Reference value :  4.00221e-06
 Reference value :  4.00288e-06
 Reference value :  4.00356e-06
 Reference value :  4.00426e-06
 Reference value :  4.00513e-06
 Reference value :  4.00589e-06
 Reference value :  4.00673e-06
 Reference value :  4.00780e-06
 Reference value :  4.00878e-06
 Reference value :  4.00974e-06
 Reference value :  4.01076e-06
 Reference value :  4.01208e-06
 Reference value :  4.01370e-06
 Reference value :  4.01490e-06
 Reference value :  4.01627e-06
 Reference value :  4.01766e-06
 Reference value :  4.01925e-06
 Reference value :  4.02095e-06
 Reference value :  4.02257e-06
 Reference value :  4.02411e-06
 Reference value :  4.02561e-06
 Reference value :  4.02718e-06
 Reference value :  4.02892e-06
 Reference value :  4.03117e-06
 Reference value :  4.03355e-06
 Reference value :  4.03807e-06
 Reference value :  4.04432e-06
 Reference value :  4.05512e-06
 Reference value :  4.06740e-06
 Reference value :  4.07986e-06
 Reference value :  4.09421e-06
 Reference value :  4.10640e-06
 Reference value :  4.11975e-06
 Reference value :  4.14021e-06
 Reference value :  4.15945e-06
 Reference value :  4.19026e-06
 Reference value :  4.22576e-06
 Reference value :  4.25010e-06
 Reference value :  4.25011e-06
 Reference value :  4.25013e-06
 Reference value :  4.25017e-06
 Reference value :  4.25020e-06
 Reference value :  4.25020e-06
 Reference value :  4.25020e-06
 Reference value :  4.25021e-06
 Reference value :  4.25021e-06
 Reference value :  4.25022e-06
 Reference value :  4.25025e-06
 Reference value :  4.25030e-06
 Reference value :  4.25039e-06
 Reference value :  4.25059e-06
 Reference value :  4.25094e-06
 Reference value :  4.25136e-06
 Reference value :  4.25188e-06
 Reference value :  4.25249e-06
 Reference value :  4.25325e-06
 Reference value :  4.25413e-06
 Reference value :  4.25527e-06
 Reference value :  4.25619e-06
 Reference value :  4.25715e-06
 Reference value :  4.25821e-06
 Reference value :  4.25981e-06
 Reference value :  4.26131e-06
 Reference value :  4.26383e-06
 Reference value :  4.26680e-06
 Reference value :  4.27219e-06
 Reference value :  4.28298e-06
 Reference value :  4.30179e-06
 Reference value :  4.33941e-06
 Reference value :  4.41189e-06
 Reference value :  4.50000e-06
 Reference value :  4.50001e-06
 Reference value :  4.50003e-06
 Reference value :  4.50007e-06
 Reference value :  4.50010e-06
 Reference value :  4.50010e-06
 Reference value :  4.50011e-06
 Reference value :  4.50013e-06
 Reference value :  4.50016e-06
 Reference value :  4.50023e-06
 Reference value :  4.50036e-06
 Reference value :  4.50053e-06
 Reference value :  4.50087e-06
 Reference value :  4.50145e-06
 Reference value :  4.50221e-06
 Reference value :  4.50283e-06
 Reference value :  4.50357e-06
 Reference value :  4.50423e-06
 Reference value :  4.50524e-06
 Reference value :  4.50621e-06
 Reference value :  4.50716e-06
 Reference value :  4.50853e-06
 Reference value :  4.50996e-06
 Reference value :  4.51122e-06
 Reference value :  4.51259e-06
 Reference value :  4.51389e-06
 Reference value :  4.51541e-06
 Reference value :  4.51698e-06
 Reference value :  4.51871e-06
 Reference value :  4.52217e-06
 Reference value :  4.52909e-06
 Reference value :  4.54164e-06
 Reference value :  4.56674e-06
 Reference value :  4.61561e-06
 Reference value :  4.71336e-06
 Reference value :  4.75010e-06
 Reference value :  4.75011e-06
 Reference value :  4.75013e-06
 Reference value :  4.75017e-06
 Reference value :  4.75020e-06
 Reference value :  4.75020e-06
 Reference value :  4.75020e-06
 Reference value :  4.75021e-06
 Reference value :  4.75021e-06
 Reference value :  4.75022e-06
 Reference value :  4.75025e-06
 Reference value :  4.75030e-06
 Reference value :  4.75039e-06
 Reference value :  4.75059e-06
 Reference value :  4.75093e-06
 Reference value :  4.75136e-06
 Reference value :  4.75188e-06
 Reference value :  4.75249e-06
 Reference value :  4.75325e-06
 Reference value :  4.75413e-06
 Reference value :  4.75530e-06
 Reference value :  4.75623e-06
 Reference value :  4.75719e-06
 Reference value :  4.75822e-06
 Reference value :  4.75933e-06
 Reference value :  4.76056e-06
 Reference value :  4.76184e-06
 Reference value :  4.76324e-06
 Reference value :  4.76537e-06
 Reference value :  4.76769e-06
 Reference value :  4.77132e-06
 Reference value :  4.77703e-06
 Reference value :  4.78847e-06
 Reference value :  4.81134e-06
 Reference value :  4.85687e-06
 Reference value :  4.94792e-06
 Reference value :  5.00000e-06
 Reference value :  5.00001e-06
 Reference value :  5.00003e-06
 Reference value :  5.00007e-06
 Reference value :  5.00010e-06
 Reference value :  5.00010e-06
 Reference value :  5.00011e-06
 Reference value :  5.00013e-06
 Reference value :  5.00016e-06
 Reference value :  5.00023e-06
 Reference value :  5.00036e-06
 Reference value :  5.00053e-06
 Reference value :  5.00087e-06
 Reference value :  5.00144e-06
 Reference value :  5.00221e-06
 Reference value :  5.00288e-06
 Reference value :  5.00356e-06
 Reference value :  5.00427e-06
 Reference value :  5.00523e-06
 Reference value :  5.00601e-06
 Reference value :  5.00684e-06
 Reference value :  5.00781e-06
 Reference value :  5.00871e-06
 Reference value :  5.00969e-06
 Reference value :  5.01066e-06
 Reference value :  5.01192e-06
 Reference value :  5.01360e-06
 Reference value :  5.01479e-06
 Reference value :  5.01619e-06
 Reference value :  5.01768e-06
 Reference value :  5.01928e-06
 Reference value :  5.02110e-06
 Reference value :  5.02264e-06
 Reference value :  5.02422e-06
 Reference value :  5.02569e-06
 Reference value :  5.02725e-06
 Reference value :  5.02901e-06
 Reference value :  5.03125e-06
 Reference value :  5.03365e-06
 Reference value :  5.03822e-06
 Reference value :  5.04455e-06
 Reference value :  5.05385e-06
 Reference value :  5.06420e-06
 Reference value :  5.07357e-06
 Reference value :  5.08344e-06
 Reference value :  5.09503e-06
 Reference value :  5.11171e-06
 Reference value :  5.13178e-06
 Reference value :  5.15106e-06
 Reference value :  5.17180e-06
 Reference value :  5.19319e-06
 Reference value :  5.23597e-06
 Reference value :  5.25010e-06
 Reference value :  5.25011e-06
 Reference value :  5.25013e-06
 Reference value :  5.25017e-06
 Reference value :  5.25020e-06
 Reference value :  5.25020e-06
 Reference value :  5.25020e-06
 Reference value :  5.25021e-06
 Reference value :  5.25021e-06
 Reference value :  5.25022e-06
 Reference value :  5.25025e-06
 Reference value :  5.25029e-06
 Reference value :  5.25039e-06
 Reference value :  5.25058e-06
 Reference value :  5.25092e-06
 Reference value :  5.25134e-06
 Reference value :  5.25187e-06
 Reference value :  5.25248e-06
 Reference value :  5.25324e-06
 Reference value :  5.25411e-06
 Reference value :  5.25526e-06
 Reference value :  5.25615e-06
 Reference value :  5.25710e-06
 Reference value :  5.25815e-06
 Reference value :  5.25973e-06
 Reference value :  5.26118e-06
 Reference value :  5.26372e-06
 Reference value :  5.26659e-06
 Reference value :  5.27193e-06
 Reference value :  5.28260e-06
 Reference value :  5.30135e-06
 Reference value :  5.33887e-06
 Reference value :  5.41074e-06
 Reference value :  5.50000e-06
 Reference value :  5.50001e-06
 Reference value :  5.50003e-06
 Reference value :  5.50007e-06
 Reference value :  5.50010e-06
 Reference value :  5.50010e-06
 Reference value :  5.50011e-06
 Reference value :  5.50013e-06
 Reference value :  5.50016e-06
 Reference value :  5.50023e-06
 Reference value :  5.50036e-06
 Reference value :  5.50053e-06
 Reference value :  5.50087e-06
 Reference value :  5.50145e-06
 Reference value :  5.50221e-06
 Reference value :  5.50284e-06
 Reference value :  5.50357e-06
 Reference value :  5.50424e-06
 Reference value :  5.50525e-06
 Reference value :  5.50625e-06
 Reference value :  5.50720e-06
 Reference value :  5.50856e-06
 Reference value :  5.50999e-06
 Reference value :  5.51125e-06
 Reference value :  5.51258e-06
 Reference value :  5.51382e-06
 Reference value :  5.51528e-06
 Reference value :  5.51676e-06
 Reference value :  5.51844e-06
 Reference value :  5.52180e-06
 Reference value :  5.52851e-06
 Reference value :  5.54072e-06
 Reference value :  5.56514e-06
 Reference value :  5.61276e-06
 Reference value :  5.70800e-06
 Reference value :  5.75010e-06
 Reference value :  5.75011e-06
 Reference value :  5.75013e-06
 Reference value :  5.75017e-06
 Reference value :  5.75020e-06
 Reference value :  5.75020e-06
 Reference value :  5.75020e-06
 Reference value :  5.75021e-06
 Reference value :  5.75021e-06
 Reference value :  5.75022e-06
 Reference value :  5.75025e-06
 Reference value :  5.75030e-06
 Reference value :  5.75039e-06
 Reference value :  5.75059e-06
 Reference value :  5.75094e-06
 Reference value :  5.75136e-06
 Reference value :  5.75188e-06
 Reference value :  5.75249e-06
 Reference value :  5.75325e-06
 Reference value :  5.75413e-06
 Reference value :  5.75531e-06
 Reference value :  5.75623e-06
 Reference value :  5.75719e-06
 Reference value :  5.75822e-06
 Reference value :  5.75933e-06
 Reference value :  5.76057e-06
 Reference value :  5.76185e-06
 Reference value :  5.76325e-06
 Reference value :  5.76537e-06
 Reference value :  5.76769e-06
 Reference value :  5.77131e-06
 Reference value :  5.77703e-06
 Reference value :  5.78846e-06
 Reference value :  5.81131e-06
 Reference value :  5.85696e-06
 Reference value :  5.94826e-06
 Reference value :  6.00000e-06
 Reference value :  6.00001e-06
 Reference value :  6.00003e-06
 Reference value :  6.00007e-06
 Reference value :  6.00010e-06
 Reference value :  6.00010e-06
 Reference value :  6.00011e-06
 Reference value :  6.00013e-06
 Reference value :  6.00016e-06
 Reference value :  6.00023e-06
 Reference value :  6.00036e-06
 Reference value :  6.00053e-06
 Reference value :  6.00087e-06
 Reference value :  6.00144e-06
 Reference value :  6.00221e-06
 Reference value :  6.00288e-06
 Reference value :  6.00356e-06
 Reference value :  6.00427e-06
 Reference value :  6.00523e-06
 Reference value :  6.00601e-06
 Reference value :  6.00684e-06
 Reference value :  6.00780e-06
 Reference value :  6.00863e-06
 Reference value :  6.00955e-06
 Reference value :  6.01053e-06
 Reference value :  6.01171e-06
 Reference value :  6.01346e-06
 Reference value :  6.01469e-06
 Reference value :  6.01610e-06
 Reference value :  6.01764e-06
 Reference value :  6.01934e-06
 Reference value :  6.02119e-06
 Reference value :  6.02237e-06
 Reference value :  6.02372e-06
 Reference value :  6.02497e-06
 Reference value :  6.02635e-06
 Reference value :  6.02813e-06
 Reference value :  6.02988e-06
 Reference value :  6.03255e-06
 Reference value :  6.03546e-06
 Reference value :  6.04127e-06
 Reference value :  6.04661e-06
 Reference value :  6.05219e-06
 Reference value :  6.05863e-06
 Reference value :  6.06840e-06
 Reference value :  6.08186e-06
 Reference value :  6.10655e-06
 Reference value :  6.15103e-06
 Reference value :  6.23998e-06
 Reference value :  6.25010e-06
 Reference value :  6.25011e-06
 Reference value :  6.25013e-06
 Reference value :  6.25017e-06
 Reference value :  6.25020e-06
 Reference value :  6.25020e-06
 Reference value :  6.25020e-06
 Reference value :  6.25021e-06
 Reference value :  6.25021e-06
 Reference value :  6.25022e-06
 Reference value :  6.25025e-06
 Reference value :  6.25030e-06
 Reference value :  6.25039e-06
 Reference value :  6.25059e-06
 Reference value :  6.25094e-06
 Reference value :  6.25136e-06
 Reference value :  6.25188e-06
 Reference value :  6.25249e-06
 Reference value :  6.25326e-06
 Reference value :  6.25413e-06
 Reference value :  6.25527e-06
 Reference value :  6.25619e-06
 Reference value :  6.25715e-06
 Reference value :  6.25821e-06
 Reference value :  6.25979e-06
 Reference value :  6.26131e-06
 Reference value :  6.26378e-06
 Reference value :  6.26678e-06
 Reference value :  6.27219e-06
 Reference value :  6.28301e-06
 Reference value :  6.30174e-06
 Reference value :  6.33916e-06
 Reference value :  6.41183e-06
 Reference value :  6.50000e-06
 Reference value :  6.50001e-06
 Reference value :  6.50003e-06
 Reference value :  6.50007e-06
 Reference value :  6.50010e-06
 Reference value :  6.50010e-06
 Reference value :  6.50011e-06
 Reference value :  6.50013e-06
 Reference value :  6.50016e-06
 Reference value :  6.50023e-06
 Reference value :  6.50036e-06
 Reference value :  6.50053e-06
 Reference value :  6.50087e-06
 Reference value :  6.50145e-06
 Reference value :  6.50221e-06
 Reference value :  6.50283e-06
 Reference value :  6.50357e-06
 Reference value :  6.50423e-06
 Reference value :  6.50524e-06
 Reference value :  6.50620e-06
 Reference value :  6.50716e-06
 Reference value :  6.50853e-06
 Reference value :  6.50995e-06
 Reference value :  6.51128e-06
 Reference value :  6.51278e-06
 Reference value :  6.51413e-06
 Reference value :  6.51563e-06
 Reference value :  6.51713e-06
 Reference value :  6.51888e-06
 Reference value :  6.52239e-06
 Reference value :  6.52857e-06
 Reference value :  6.54091e-06
 Reference value :  6.56498e-06
 Reference value :  6.61079e-06
 Reference value :  6.70242e-06
 Reference value :  6.75010e-06
 Reference value :  6.75011e-06
 Reference value :  6.75013e-06
 Reference value :  6.75017e-06
 Reference value :  6.75020e-06
 Reference value :  6.75020e-06
 Reference value :  6.75020e-06
 Reference value :  6.75021e-06
 Reference value :  6.75021e-06
 Reference value :  6.75022e-06
 Reference value :  6.75025e-06
 Reference value :  6.75030e-06
 Reference value :  6.75039e-06
 Reference value :  6.75059e-06
 Reference value :  6.75094e-06
 Reference value :  6.75136e-06
 Reference value :  6.75188e-06
 Reference value :  6.75249e-06
 Reference value :  6.75326e-06
 Reference value :  6.75413e-06
 Reference value :  6.75531e-06
 Reference value :  6.75623e-06
 Reference value :  6.75720e-06
 Reference value :  6.75822e-06
 Reference value :  6.75933e-06
 Reference value :  6.76057e-06
 Reference value :  6.76185e-06
 Reference value :  6.76325e-06
 Reference value :  6.76537e-06
 Reference value :  6.76769e-06
 Reference value :  6.77132e-06
 Reference value :  6.77704e-06
 Reference value :  6.78848e-06
 Reference value :  6.81136e-06
 Reference value :  6.85652e-06
 Reference value :  6.94685e-06
 Reference value :  7.00000e-06
 Reference value :  7.00001e-06
 Reference value :  7.00003e-06
 Reference value :  7.00007e-06
 Reference value :  7.00010e-06
 Reference value :  7.00010e-06
 Reference value :  7.00011e-06
 Reference value :  7.00013e-06
 Reference value :  7.00016e-06
 Reference value :  7.00023e-06
 Reference value :  7.00036e-06
 Reference value :  7.00053e-06
 Reference value :  7.00087e-06
 Reference value :  7.00144e-06
 Reference value :  7.00221e-06
 Reference value :  7.00288e-06
 Reference value :  7.00356e-06
 Reference value :  7.00426e-06
 Reference value :  7.00513e-06
 Reference value :  7.00589e-06
 Reference value :  7.00672e-06
 Reference value :  7.00780e-06
 Reference value :  7.00878e-06
 Reference value :  7.00974e-06
 Reference value :  7.01079e-06
 Reference value :  7.01204e-06
 Reference value :  7.01384e-06
 Reference value :  7.01515e-06
 Reference value :  7.01663e-06
 Reference value :  7.01808e-06
 Reference value :  7.01974e-06
 Reference value :  7.02133e-06
 Reference value :  7.02246e-06
 Reference value :  7.02360e-06
 Reference value :  7.02476e-06
 Reference value :  7.02608e-06
 Reference value :  7.02746e-06
 Reference value :  7.02889e-06
 Reference value :  7.03093e-06
 Reference value :  7.03315e-06
 Reference value :  7.03727e-06
 Reference value :  7.04134e-06
 Reference value :  7.04819e-06
 Reference value :  7.05590e-06
 Reference value :  7.07132e-06
 Reference value :  7.09180e-06
 Reference value :  7.13104e-06
 Reference value :  7.20927e-06
 Reference value :  7.25010e-06
 Reference value :  7.25011e-06
 Reference value :  7.25013e-06
 Reference value :  7.25017e-06
 Reference value :  7.25020e-06
 Reference value :  7.25020e-06
 Reference value :  7.25020e-06
 Reference value :  7.25021e-06
 Reference value :  7.25021e-06
 Reference value :  7.25022e-06
 Reference value :  7.25025e-06
 Reference value :  7.25029e-06
 Reference value :  7.25039e-06
 Reference value :  7.25058e-06
 Reference value :  7.25092e-06
 Reference value :  7.25135e-06
 Reference value :  7.25187e-06
 Reference value :  7.25248e-06
 Reference value :  7.25324e-06
 Reference value :  7.25412e-06
 Reference value :  7.25525e-06
 Reference value :  7.25618e-06
 Reference value :  7.25714e-06
 Reference value :  7.25821e-06
 Reference value :  7.25979e-06
 Reference value :  7.26133e-06
 Reference value :  7.26379e-06
 Reference value :  7.26680e-06
 Reference value :  7.27219e-06
 Reference value :  7.28295e-06
 Reference value :  7.30173e-06
 Reference value :  7.33906e-06
 Reference value :  7.41021e-06
 Reference value :  7.50000e-06
 Reference value :  7.50001e-06
 Reference value :  7.50003e-06
 Reference value :  7.50007e-06
 Reference value :  7.50010e-06
 Reference value :  7.50010e-06
 Reference value :  7.50011e-06
 Reference value :  7.50013e-06
 Reference value :  7.50016e-06
 Reference value :  7.50023e-06
 Reference value :  7.50036e-06
 Reference value :  7.50053e-06
 Reference value :  7.50087e-06
 Reference value :  7.50150e-06
 Reference value :  7.50218e-06
 Reference value :  7.50276e-06
 Reference value :  7.50340e-06
 Reference value :  7.50407e-06
 Reference value :  7.50501e-06
 Reference value :  7.50591e-06
 Reference value :  7.50687e-06
 Reference value :  7.50815e-06
 Reference value :  7.50958e-06
 Reference value :  7.51109e-06
 Reference value :  7.51247e-06
 Reference value :  7.51391e-06
 Reference value :  7.51552e-06
 Reference value :  7.51716e-06
 Reference value :  7.51925e-06
 Reference value :  7.52226e-06
 Reference value :  7.52745e-06
 Reference value :  7.53675e-06
 Reference value :  7.55331e-06
 Reference value :  7.58405e-06
 Reference value :  7.64100e-06
 Reference value :  7.74457e-06
 Reference value :  7.75010e-06
 Reference value :  7.75011e-06
 Reference value :  7.75013e-06
 Reference value :  7.75017e-06
 Reference value :  7.75020e-06
 Reference value :  7.75020e-06
 Reference value :  7.75020e-06
 Reference value :  7.75021e-06
 Reference value :  7.75021e-06
 Reference value :  7.75022e-06
 Reference value :  7.75025e-06
 Reference value :  7.75029e-06
 Reference value :  7.75039e-06
 Reference value :  7.75058e-06
 Reference value :  7.75092e-06
 Reference value :  7.75135e-06
 Reference value :  7.75187e-06
 Reference value :  7.75248e-06
 Reference value :  7.75324e-06
 Reference value :  7.75412e-06
 Reference value :  7.75528e-06
 Reference value :  7.75621e-06
 Reference value :  7.75719e-06
 Reference value :  7.75821e-06
 Reference value :  7.75932e-06
 Reference value :  7.76056e-06
 Reference value :  7.76184e-06
 Reference value :  7.76324e-06
 Reference value :  7.76538e-06
 Reference value :  7.76768e-06
 Reference value :  7.77137e-06
 Reference value :  7.77716e-06
 Reference value :  7.78874e-06
 Reference value :  7.81190e-06
 Reference value :  7.85498e-06
 Reference value :  7.94113e-06
 Reference value :  8.00000e-06
 Reference value :  8.00001e-06
 Reference value :  8.00003e-06
 Reference value :  8.00007e-06
 Reference value :  8.00010e-06
 Reference value :  8.00010e-06
 Reference value :  8.00011e-06
 Reference value :  8.00013e-06
 Reference value :  8.00016e-06
 Reference value :  8.00023e-06
 Reference value :  8.00036e-06
 Reference value :  8.00053e-06
 Reference value :  8.00087e-06
 Reference value :  8.00149e-06
 Reference value :  8.00218e-06
 Reference value :  8.00280e-06
 Reference value :  8.00345e-06
 Reference value :  8.00413e-06
 Reference value :  8.00496e-06
 Reference value :  8.00583e-06
 Reference value :  8.00671e-06
 Reference value :  8.00765e-06
 Reference value :  8.00875e-06
 Reference value :  8.00976e-06
 Reference value :  8.01079e-06
 Reference value :  8.01217e-06
 Reference value :  8.01383e-06
 Reference value :  8.01514e-06
 Reference value :  8.01662e-06
 Reference value :  8.01821e-06
 Reference value :  8.01996e-06
 Reference value :  8.02204e-06
 Reference value :  8.02374e-06
 Reference value :  8.02537e-06
 Reference value :  8.02713e-06
 Reference value :  8.02966e-06
 Reference value :  8.03342e-06
 Reference value :  8.03930e-06
 Reference value :  8.04938e-06
 Reference value :  8.06470e-06
 Reference value :  8.09232e-06
 Reference value :  8.14289e-06
 Reference value :  8.23525e-06
 Reference value :  8.25010e-06
 Reference value :  8.25011e-06
 Reference value :  8.25013e-06
 Reference value :  8.25017e-06
 Reference value :  8.25020e-06
 Reference value :  8.25020e-06
 Reference value :  8.25020e-06
 Reference value :  8.25021e-06
 Reference value :  8.25021e-06
 Reference value :  8.25022e-06
 Reference value :  8.25025e-06
 Reference value :  8.25030e-06
 Reference value :  8.25039e-06
 Reference value :  8.25059e-06
 Reference value :  8.25098e-06
 Reference value :  8.25139e-06
 Reference value :  8.25189e-06
 Reference value :  8.25250e-06
 Reference value :  8.25330e-06
 Reference value :  8.25418e-06
 Reference value :  8.25526e-06
 Reference value :  8.25645e-06
 Reference value :  8.25784e-06
 Reference value :  8.25942e-06
 Reference value :  8.26126e-06
 Reference value :  8.26400e-06
 Reference value :  8.26675e-06
 Reference value :  8.27190e-06
 Reference value :  8.28222e-06
 Reference value :  8.29894e-06
 Reference value :  8.33230e-06
 Reference value :  8.39103e-06
 Reference value :  8.50000e-06
 Reference value :  8.50001e-06
 Reference value :  8.50003e-06
 Reference value :  8.50007e-06
 Reference value :  8.50010e-06
 Reference value :  8.50010e-06
 Reference value :  8.50011e-06
 Reference value :  8.50013e-06
 Reference value :  8.50016e-06
 Reference value :  8.50023e-06
 Reference value :  8.50036e-06
 Reference value :  8.50063e-06
 Reference value :  8.50109e-06
 Reference value :  8.50179e-06
 Reference value :  8.50270e-06
 Reference value :  8.50336e-06
 Reference value :  8.50415e-06
 Reference value :  8.50499e-06
 Reference value :  8.50589e-06
 Reference value :  8.50698e-06
 Reference value :  8.50836e-06
 Reference value :  8.51007e-06
 Reference value :  8.51231e-06
 Reference value :  8.51410e-06
 Reference value :  8.51597e-06
 Reference value :  8.51836e-06
 Reference value :  8.52086e-06
 Reference value :  8.52366e-06
 Reference value :  8.52788e-06
 Reference value :  8.53294e-06
 Reference value :  8.53659e-06
 Reference value :  8.53959e-06
 Reference value :  8.54242e-06
 Reference value :  8.54522e-06
 Reference value :  8.54820e-06
 Reference value :  8.55092e-06
 Reference value :  8.55456e-06
 Reference value :  8.55797e-06
 Reference value :  8.56112e-06
 Reference value :  8.56379e-06
 Reference value :  8.56662e-06
 Reference value :  8.57226e-06
 Reference value :  8.58008e-06
 Reference value :  8.59460e-06
 Reference value :  8.61877e-06
 Reference value :  8.65956e-06
 Reference value :  8.72093e-06
 Reference value :  8.75010e-06
 Reference value :  8.75011e-06
 Reference value :  8.75013e-06
 Reference value :  8.75017e-06
 Reference value :  8.75020e-06
 Reference value :  8.75020e-06
 Reference value :  8.75020e-06
 Reference value :  8.75021e-06
 Reference value :  8.75021e-06
 Reference value :  8.75022e-06
 Reference value :  8.75025e-06
 Reference value :  8.75030e-06
 Reference value :  8.75039e-06
 Reference value :  8.75059e-06
 Reference value :  8.75098e-06
 Reference value :  8.75139e-06
 Reference value :  8.75191e-06
 Reference value :  8.75252e-06
 Reference value :  8.75332e-06
 Reference value :  8.75421e-06
 Reference value :  8.75524e-06
 Reference value :  8.75612e-06
 Reference value :  8.75706e-06
 Reference value :  8.75808e-06
 Reference value :  8.75948e-06
 Reference value :  8.76094e-06
 Reference value :  8.76332e-06
 Reference value :  8.76609e-06
 Reference value :  8.77087e-06
 Reference value :  8.78044e-06
 Reference value :  8.79783e-06
 Reference value :  8.83159e-06
 Reference value :  8.89869e-06
 Reference value :  9.00000e-06
 Reference value :  9.00001e-06
 Reference value :  9.00003e-06
 Reference value :  9.00007e-06
 Reference value :  9.00010e-06
 Reference value :  9.00010e-06
 Reference value :  9.00011e-06
 Reference value :  9.00013e-06
 Reference value :  9.00016e-06
 Reference value :  9.00023e-06
 Reference value :  9.00036e-06
 Reference value :  9.00054e-06
 Reference value :  9.00089e-06
 Reference value :  9.00151e-06
 Reference value :  9.00220e-06
 Reference value :  9.00278e-06
 Reference value :  9.00350e-06
 Reference value :  9.00417e-06
 Reference value :  9.00516e-06
 Reference value :  9.00613e-06
 Reference value :  9.00709e-06
 Reference value :  9.00858e-06
 Reference value :  9.00993e-06
 Reference value :  9.01183e-06
 Reference value :  9.01410e-06
 Reference value :  9.01597e-06
 Reference value :  9.01794e-06
 Reference value :  9.01993e-06
 Reference value :  9.02216e-06
 Reference value :  9.02468e-06
 Reference value :  9.02735e-06
 Reference value :  9.03225e-06
 Reference value :  9.04035e-06
 Reference value :  9.05009e-06
 Reference value :  9.06956e-06
 Reference value :  9.10851e-06
 Reference value :  9.17737e-06
 Reference value :  9.25010e-06
 Reference value :  9.25011e-06
 Reference value :  9.25013e-06
 Reference value :  9.25017e-06
 Reference value :  9.25020e-06
 Reference value :  9.25020e-06
 Reference value :  9.25020e-06
 Reference value :  9.25021e-06
 Reference value :  9.25021e-06
 Reference value :  9.25022e-06
 Reference value :  9.25025e-06
 Reference value :  9.25030e-06
 Reference value :  9.25039e-06
 Reference value :  9.25059e-06
 Reference value :  9.25098e-06
 Reference value :  9.25139e-06
 Reference value :  9.25191e-06
 Reference value :  9.25252e-06
 Reference value :  9.25332e-06
 Reference value :  9.25422e-06
 Reference value :  9.25540e-06
 Reference value :  9.25648e-06
 Reference value :  9.25749e-06
 Reference value :  9.25856e-06
 Reference value :  9.25975e-06
 Reference value :  9.26104e-06
 Reference value :  9.26232e-06
 Reference value :  9.26376e-06
 Reference value :  9.26603e-06
 Reference value :  9.26829e-06
 Reference value :  9.27226e-06
 Reference value :  9.27932e-06
 Reference value :  9.28957e-06
 Reference value :  9.30868e-06
 Reference value :  9.33873e-06
 Reference value :  9.39000e-06
 Reference value :  9.48650e-06
 Reference value :  9.50000e-06
 Reference value :  9.50001e-06
 Reference value :  9.50003e-06
 Reference value :  9.50007e-06
 Reference value :  9.50010e-06
 Reference value :  9.50010e-06
 Reference value :  9.50011e-06
 Reference value :  9.50013e-06
 Reference value :  9.50016e-06
 Reference value :  9.50023e-06
 Reference value :  9.50036e-06
 Reference value :  9.50054e-06
 Reference value :  9.50089e-06
 Reference value :  9.50151e-06
 Reference value :  9.50220e-06
 Reference value :  9.50281e-06
 Reference value :  9.50346e-06
 Reference value :  9.50414e-06
 Reference value :  9.50499e-06
 Reference value :  9.50588e-06
 Reference value :  9.50675e-06
 Reference value :  9.50765e-06
 Reference value :  9.50863e-06
 Reference value :  9.50966e-06
 Reference value :  9.51059e-06
 Reference value :  9.51205e-06
 Reference value :  9.51353e-06
 Reference value :  9.51595e-06
 Reference value :  9.51768e-06
 Reference value :  9.51951e-06
 Reference value :  9.52119e-06
 Reference value :  9.52266e-06
 Reference value :  9.52413e-06
 Reference value :  9.52572e-06
 Reference value :  9.52718e-06
 Reference value :  9.52898e-06
 Reference value :  9.53113e-06
 Reference value :  9.53349e-06
 Reference value :  9.53780e-06
 Reference value :  9.54388e-06
 Reference value :  9.55439e-06
 Reference value :  9.57247e-06
 Reference value :  9.60192e-06
 Reference value :  9.65409e-06
 Reference value :  9.72795e-06
 Reference value :  9.75010e-06
 Reference value :  9.75011e-06
 Reference value :  9.75013e-06
 Reference value :  9.75017e-06
 Reference value :  9.75020e-06
 Reference value :  9.75020e-06
 Reference value :  9.75020e-06
 Reference value :  9.75021e-06
 Reference value :  9.75021e-06
 Reference value :  9.75022e-06
 Reference value :  9.75025e-06
 Reference value :  9.75030e-06
 Reference value :  9.75039e-06
 Reference value :  9.75059e-06
 Reference value :  9.75094e-06
 Reference value :  9.75136e-06
 Reference value :  9.75188e-06
 Reference value :  9.75249e-06
 Reference value :  9.75326e-06
 Reference value :  9.75414e-06
 Reference value :  9.75528e-06
 Reference value :  9.75619e-06
 Reference value :  9.75715e-06
 Reference value :  9.75822e-06
 Reference value :  9.75979e-06
 Reference value :  9.76130e-06
 Reference value :  9.76378e-06
 Reference value :  9.76678e-06
 Reference value :  9.77220e-06
 Reference value :  9.78303e-06
 Reference value :  9.80170e-06
 Reference value :  9.83903e-06
 Reference value :  9.91175e-06
 Reference value :  9.98798e-06
 Reference value :  1.00000e-05
 Reference value :  1.00000e-05
 Reference value :  1.00000e-05
 Reference value :  1.00001e-05
 Reference value :  1.00001e-05
 Reference value :  1.00001e-05
 Reference value :  1.00001e-05
 Reference value :  1.00001e-05
 Reference value :  1.00002e-05
 Reference value :  1.00002e-05
 Reference value :  1.00004e-05
 Reference value :  1.00005e-05
 Reference value :  1.00009e-05
 Reference value :  1.00014e-05
 Reference value :  1.00022e-05
 Reference value :  1.00028e-05
 Reference value :  1.00036e-05
 Reference value :  1.00042e-05
 Reference value :  1.00053e-05
 Reference value :  1.00063e-05
 Reference value :  1.00072e-05
 Reference value :  1.00086e-05
 Reference value :  1.00100e-05
 Reference value :  1.00113e-05
 Reference value :  1.00128e-05
 Reference value :  1.00144e-05
 Reference value :  1.00161e-05
 Reference value :  1.00178e-05
 Reference value :  1.00202e-05
 Reference value :  1.00229e-05
 Reference value :  1.00279e-05
 Reference value :  1.00356e-05
 Reference value :  1.00491e-05
 Reference value :  1.00747e-05
 Reference value :  1.01197e-05
 Reference value :  1.02062e-05
 Reference value :  1.02501e-05
 Reference value :  1.02501e-05
 Reference value :  1.02501e-05
 Reference value :  1.02502e-05
 Reference value :  1.02502e-05
 Reference value :  1.02502e-05
 Reference value :  1.02502e-05
 Reference value :  1.02502e-05
 Reference value :  1.02502e-05
 Reference value :  1.02502e-05
 Reference value :  1.02502e-05
 Reference value :  1.02503e-05
 Reference value :  1.02504e-05
 Reference value :  1.02506e-05
 Reference value :  1.02509e-05
 Reference value :  1.02513e-05
 Reference value :  1.02519e-05
 Reference value :  1.02525e-05
 Reference value :  1.02532e-05
 Reference value :  1.02541e-05
 Reference value :  1.02553e-05
 Reference value :  1.02562e-05
 Reference value :  1.02571e-05
 Reference value :  1.02582e-05
 Reference value :  1.02593e-05
 Reference value :  1.02605e-05
 Reference value :  1.02618e-05
 Reference value :  1.02632e-05
 Reference value :  1.02654e-05
 Reference value :  1.02677e-05
 Reference value :  1.02713e-05
 Reference value :  1.02769e-05
 Reference value :  1.02881e-05
 Reference value :  1.03104e-05
 Reference value :  1.03551e-05
 Reference value :  1.04446e-05
 Reference value :  1.05000e-05
 Reference value :  1.05000e-05
 Reference value :  1.05000e-05
 Reference value :  1.05001e-05
 Reference value :  1.05001e-05
 Reference value :  1.05001e-05
 Reference value :  1.05001e-05
 Reference value :  1.05001e-05
 Reference value :  1.05002e-05
 Reference value :  1.05002e-05
 Reference value :  1.05004e-05
 Reference value :  1.05005e-05
 Reference value :  1.05009e-05
 Reference value :  1.05014e-05
 Reference value :  1.05022e-05
 Reference value :  1.05029e-05
 Reference value :  1.05036e-05
 Reference value :  1.05043e-05
 Reference value :  1.05051e-05
 Reference value :  1.05059e-05
 Reference value :  1.05067e-05
 Reference value :  1.05078e-05
 Reference value :  1.05088e-05
 Reference value :  1.05097e-05
 Reference value :  1.05108e-05
 Reference value :  1.05121e-05
 Reference value :  1.05137e-05
 Reference value :  1.05158e-05
 Reference value :  1.05173e-05
 Reference value :  1.05191e-05
 Reference value :  1.05208e-05
 Reference value :  1.05222e-05
 Reference value :  1.05235e-05
 Reference value :  1.05249e-05
 Reference value :  1.05263e-05
 Reference value :  1.05280e-05
 Reference value :  1.05297e-05
 Reference value :  1.05322e-05
 Reference value :  1.05348e-05
 Reference value :  1.05401e-05
 Reference value :  1.05487e-05
 Reference value :  1.05622e-05
 Reference value :  1.05845e-05
 Reference value :  1.06224e-05
 Reference value :  1.06750e-05
 Reference value :  1.07501e-05
 Reference value :  1.07501e-05
 Reference value :  1.07501e-05
 Reference value :  1.07502e-05
 Reference value :  1.07502e-05
 Reference value :  1.07502e-05
 Reference value :  1.07502e-05
 Reference value :  1.07502e-05
 Reference value :  1.07502e-05
 Reference value :  1.07502e-05
 Reference value :  1.07502e-05
 Reference value :  1.07503e-05
 Reference value :  1.07504e-05
 Reference value :  1.07506e-05
 Reference value :  1.07509e-05
 Reference value :  1.07514e-05
 Reference value :  1.07519e-05
 Reference value :  1.07525e-05
 Reference value :  1.07533e-05
 Reference value :  1.07541e-05
 Reference value :  1.07553e-05
 Reference value :  1.07562e-05
 Reference value :  1.07571e-05
 Reference value :  1.07582e-05
 Reference value :  1.07598e-05
 Reference value :  1.07613e-05
 Reference value :  1.07638e-05
 Reference value :  1.07668e-05
 Reference value :  1.07722e-05
 Reference value :  1.07830e-05
 Reference value :  1.08017e-05
 Reference value :  1.08389e-05
 Reference value :  1.09005e-05
 Reference value :  1.09653e-05
 Reference value :  1.10000e-05
 Reference value :  1.10000e-05
 Reference value :  1.10000e-05
 Reference value :  1.10001e-05
 Reference value :  1.10001e-05
 Reference value :  1.10001e-05
 Reference value :  1.10001e-05
 Reference value :  1.10001e-05
 Reference value :  1.10002e-05
 Reference value :  1.10002e-05
 Reference value :  1.10004e-05
 Reference value :  1.10005e-05
 Reference value :  1.10009e-05
 Reference value :  1.10014e-05
 Reference value :  1.10022e-05
 Reference value :  1.10028e-05
 Reference value :  1.10036e-05
 Reference value :  1.10042e-05
 Reference value :  1.10053e-05
 Reference value :  1.10063e-05
 Reference value :  1.10072e-05
 Reference value :  1.10086e-05
 Reference value :  1.10100e-05
 Reference value :  1.10113e-05
 Reference value :  1.10128e-05
 Reference value :  1.10144e-05
 Reference value :  1.10161e-05
 Reference value :  1.10178e-05
 Reference value :  1.10201e-05
 Reference value :  1.10230e-05
 Reference value :  1.10281e-05
 Reference value :  1.10367e-05
 Reference value :  1.10524e-05
 Reference value :  1.10824e-05
 Reference value :  1.11384e-05
 Reference value :  1.12480e-05
 Reference value :  1.12501e-05
 Reference value :  1.12501e-05
 Reference value :  1.12501e-05
 Reference value :  1.12502e-05
 Reference value :  1.12502e-05
 Reference value :  1.12502e-05
 Reference value :  1.12502e-05
 Reference value :  1.12502e-05
 Reference value :  1.12502e-05
 Reference value :  1.12502e-05
 Reference value :  1.12502e-05
 Reference value :  1.12503e-05
 Reference value :  1.12504e-05
 Reference value :  1.12506e-05
 Reference value :  1.12509e-05
 Reference value :  1.12513e-05
 Reference value :  1.12519e-05
 Reference value :  1.12525e-05
 Reference value :  1.12532e-05
 Reference value :  1.12541e-05
 Reference value :  1.12553e-05
 Reference value :  1.12562e-05
 Reference value :  1.12571e-05
 Reference value :  1.12582e-05
 Reference value :  1.12593e-05
 Reference value :  1.12605e-05
 Reference value :  1.12618e-05
 Reference value :  1.12632e-05
 Reference value :  1.12654e-05
 Reference value :  1.12677e-05
 Reference value :  1.12713e-05
 Reference value :  1.12769e-05
 Reference value :  1.12880e-05
 Reference value :  1.13103e-05
 Reference value :  1.13549e-05
 Reference value :  1.14441e-05
 Reference value :  1.15000e-05
 Reference value :  1.15000e-05
 Reference value :  1.15000e-05
 Reference value :  1.15001e-05
 Reference value :  1.15001e-05
 Reference value :  1.15001e-05
 Reference value :  1.15001e-05
 Reference value :  1.15001e-05
 Reference value :  1.15002e-05
 Reference value :  1.15002e-05
 Reference value :  1.15004e-05
 Reference value :  1.15005e-05
 Reference value :  1.15009e-05
 Reference value :  1.15014e-05
 Reference value :  1.15022e-05
 Reference value :  1.15029e-05
 Reference value :  1.15036e-05
 Reference value :  1.15043e-05
 Reference value :  1.15051e-05
 Reference value :  1.15059e-05
 Reference value :  1.15067e-05
 Reference value :  1.15078e-05
 Reference value :  1.15088e-05
 Reference value :  1.15097e-05
 Reference value :  1.15107e-05
 Reference value :  1.15121e-05
 Reference value :  1.15136e-05
 Reference value :  1.15152e-05
 Reference value :  1.15169e-05
 Reference value :  1.15185e-05
 Reference value :  1.15202e-05
 Reference value :  1.15215e-05
 Reference value :  1.15226e-05
 Reference value :  1.15241e-05
 Reference value :  1.15256e-05
 Reference value :  1.15269e-05
 Reference value :  1.15287e-05
 Reference value :  1.15308e-05
 Reference value :  1.15331e-05
 Reference value :  1.15375e-05
 Reference value :  1.15438e-05
 Reference value :  1.15547e-05
 Reference value :  1.15734e-05
 Reference value :  1.16015e-05
 Reference value :  1.16334e-05
 Reference value :  1.16602e-05
 Reference value :  1.16925e-05
 Reference value :  1.17260e-05
 Reference value :  1.17501e-05
 Reference value :  1.17501e-05
 Reference value :  1.17501e-05
 Reference value :  1.17502e-05
 Reference value :  1.17502e-05
 Reference value :  1.17502e-05
 Reference value :  1.17502e-05
 Reference value :  1.17502e-05
 Reference value :  1.17502e-05
 Reference value :  1.17502e-05
 Reference value :  1.17502e-05
 Reference value :  1.17503e-05
 Reference value :  1.17504e-05
 Reference value :  1.17506e-05
 Reference value :  1.17509e-05
 Reference value :  1.17513e-05
 Reference value :  1.17519e-05
 Reference value :  1.17525e-05
 Reference value :  1.17532e-05
 Reference value :  1.17541e-05
 Reference value :  1.17553e-05
 Reference value :  1.17561e-05
 Reference value :  1.17571e-05
 Reference value :  1.17581e-05
 Reference value :  1.17597e-05
 Reference value :  1.17612e-05
 Reference value :  1.17637e-05
 Reference value :  1.17666e-05
 Reference value :  1.17719e-05
 Reference value :  1.17825e-05
 Reference value :  1.18012e-05
 Reference value :  1.18385e-05
 Reference value :  1.19097e-05
 Reference value :  1.20000e-05
 Reference value :  1.20000e-05
 Reference value :  1.20000e-05
 Reference value :  1.20001e-05
 Reference value :  1.20001e-05
 Reference value :  1.20001e-05
 Reference value :  1.20001e-05
 Reference value :  1.20001e-05
 Reference value :  1.20002e-05
 Reference value :  1.20002e-05
 Reference value :  1.20004e-05
 Reference value :  1.20005e-05
 Reference value :  1.20009e-05
 Reference value :  1.20014e-05
 Reference value :  1.20022e-05
 Reference value :  1.20028e-05
 Reference value :  1.20036e-05
 Reference value :  1.20042e-05
 Reference value :  1.20052e-05
 Reference value :  1.20062e-05
 Reference value :  1.20072e-05
 Reference value :  1.20085e-05
 Reference value :  1.20100e-05
 Reference value :  1.20113e-05
 Reference value :  1.20128e-05
 Reference value :  1.20143e-05
 Reference value :  1.20160e-05
 Reference value :  1.20180e-05
 Reference value :  1.20199e-05
 Reference value :  1.20236e-05
 Reference value :  1.20309e-05
 Reference value :  1.20436e-05
 Reference value :  1.20689e-05
 Reference value :  1.21180e-05
 Reference value :  1.22160e-05
 Reference value :  1.22501e-05
 Reference value :  1.22501e-05
 Reference value :  1.22501e-05
 Reference value :  1.22502e-05
 Reference value :  1.22502e-05
 Reference value :  1.22502e-05
 Reference value :  1.22502e-05
 Reference value :  1.22502e-05
 Reference value :  1.22502e-05
 Reference value :  1.22502e-05
 Reference value :  1.22502e-05
 Reference value :  1.22503e-05
 Reference value :  1.22504e-05
 Reference value :  1.22506e-05
 Reference value :  1.22509e-05
 Reference value :  1.22514e-05
 Reference value :  1.22519e-05
 Reference value :  1.22525e-05
 Reference value :  1.22533e-05
 Reference value :  1.22541e-05
 Reference value :  1.22553e-05
 Reference value :  1.22562e-05
 Reference value :  1.22572e-05
 Reference value :  1.22582e-05
 Reference value :  1.22593e-05
 Reference value :  1.22606e-05
 Reference value :  1.22618e-05
 Reference value :  1.22632e-05
 Reference value :  1.22654e-05
 Reference value :  1.22677e-05
 Reference value :  1.22713e-05
 Reference value :  1.22769e-05
 Reference value :  1.22883e-05
 Reference value :  1.23110e-05
 Reference value :  1.23563e-05
 Reference value :  1.24471e-05
 Reference value :  1.25000e-05
 Reference value :  1.25000e-05
 Reference value :  1.25000e-05
 Reference value :  1.25001e-05
 Reference value :  1.25001e-05
 Reference value :  1.25001e-05
 Reference value :  1.25001e-05
 Reference value :  1.25001e-05
 Reference value :  1.25002e-05
 Reference value :  1.25002e-05
 Reference value :  1.25004e-05
 Reference value :  1.25005e-05
 Reference value :  1.25009e-05
 Reference value :  1.25014e-05
 Reference value :  1.25022e-05
 Reference value :  1.25029e-05
 Reference value :  1.25036e-05
 Reference value :  1.25043e-05
 Reference value :  1.25051e-05
 Reference value :  1.25059e-05
 Reference value :  1.25067e-05
 Reference value :  1.25078e-05
 Reference value :  1.25088e-05
 Reference value :  1.25097e-05
 Reference value :  1.25108e-05
 Reference value :  1.25121e-05
 Reference value :  1.25137e-05
 Reference value :  1.25149e-05
 Reference value :  1.25163e-05
 Reference value :  1.25177e-05
 Reference value :  1.25193e-05
 Reference value :  1.25209e-05
 Reference value :  1.25226e-05
 Reference value :  1.25241e-05
 Reference value :  1.25256e-05
 Reference value :  1.25272e-05
 Reference value :  1.25289e-05
 Reference value :  1.25312e-05
 Reference value :  1.25335e-05
 Reference value :  1.25380e-05
 Reference value :  1.25443e-05
 Reference value :  1.25550e-05
 Reference value :  1.25673e-05
 Reference value :  1.25797e-05
 Reference value :  1.25941e-05
 Reference value :  1.26063e-05
 Reference value :  1.26196e-05
 Reference value :  1.26401e-05
 Reference value :  1.26592e-05
 Reference value :  1.26900e-05
 Reference value :  1.27253e-05
 Reference value :  1.27501e-05
 Reference value :  1.27501e-05
 Reference value :  1.27501e-05
 Reference value :  1.27502e-05
 Reference value :  1.27502e-05
 Reference value :  1.27502e-05
 Reference value :  1.27502e-05
 Reference value :  1.27502e-05
 Reference value :  1.27502e-05
 Reference value :  1.27502e-05
 Reference value :  1.27502e-05
 Reference value :  1.27503e-05
 Reference value :  1.27504e-05
 Reference value :  1.27506e-05
 Reference value :  1.27509e-05
 Reference value :  1.27514e-05
 Reference value :  1.27519e-05
 Reference value :  1.27525e-05
 Reference value :  1.27533e-05
 Reference value :  1.27541e-05
 Reference value :  1.27553e-05
 Reference value :  1.27562e-05
 Reference value :  1.27571e-05
 Reference value :  1.27582e-05
 Reference value :  1.27598e-05
 Reference value :  1.27613e-05
 Reference value :  1.27638e-05
 Reference value :  1.27668e-05
 Reference value :  1.27722e-05
 Reference value :  1.27830e-05
 Reference value :  1.28016e-05
 Reference value :  1.28389e-05
 Reference value :  1.29111e-05
 Reference value :  1.30000e-05
 Reference value :  1.30000e-05
 Reference value :  1.30000e-05
 Reference value :  1.30001e-05
 Reference value :  1.30001e-05
 Reference value :  1.30001e-05
 Reference value :  1.30001e-05
 Reference value :  1.30001e-05
 Reference value :  1.30002e-05
 Reference value :  1.30002e-05
 Reference value :  1.30004e-05
 Reference value :  1.30005e-05
 Reference value :  1.30009e-05
 Reference value :  1.30014e-05
 Reference value :  1.30022e-05
 Reference value :  1.30028e-05
 Reference value :  1.30036e-05
 Reference value :  1.30042e-05
 Reference value :  1.30052e-05
 Reference value :  1.30062e-05
 Reference value :  1.30072e-05
 Reference value :  1.30085e-05
 Reference value :  1.30100e-05
 Reference value :  1.30112e-05
 Reference value :  1.30126e-05
 Reference value :  1.30139e-05
 Reference value :  1.30154e-05
 Reference value :  1.30170e-05
 Reference value :  1.30187e-05
 Reference value :  1.30222e-05
 Reference value :  1.30291e-05
 Reference value :  1.30416e-05
 Reference value :  1.30667e-05
 Reference value :  1.31155e-05
 Reference value :  1.32131e-05
 Reference value :  1.32501e-05
 Reference value :  1.32501e-05
 Reference value :  1.32501e-05
 Reference value :  1.32502e-05
 Reference value :  1.32502e-05
 Reference value :  1.32502e-05
 Reference value :  1.32502e-05
 Reference value :  1.32502e-05
 Reference value :  1.32502e-05
 Reference value :  1.32502e-05
 Reference value :  1.32502e-05
 Reference value :  1.32503e-05
 Reference value :  1.32504e-05
 Reference value :  1.32506e-05
 Reference value :  1.32509e-05
 Reference value :  1.32514e-05
 Reference value :  1.32519e-05
 Reference value :  1.32525e-05
 Reference value :  1.32533e-05
 Reference value :  1.32541e-05
 Reference value :  1.32553e-05
 Reference value :  1.32562e-05
 Reference value :  1.32572e-05
 Reference value :  1.32582e-05
 Reference value :  1.32593e-05
 Reference value :  1.32606e-05
 Reference value :  1.32618e-05
 Reference value :  1.32632e-05
 Reference value :  1.32654e-05
 Reference value :  1.32677e-05
 Reference value :  1.32713e-05
 Reference value :  1.32770e-05
 Reference value :  1.32885e-05
 Reference value :  1.33113e-05
 Reference value :  1.33569e-05
 Reference value :  1.34479e-05
 Reference value :  1.35000e-05
 Reference value :  1.35000e-05
 Reference value :  1.35000e-05
 Reference value :  1.35001e-05
 Reference value :  1.35001e-05
 Reference value :  1.35001e-05
 Reference value :  1.35001e-05
 Reference value :  1.35001e-05
 Reference value :  1.35002e-05
 Reference value :  1.35002e-05
 Reference value :  1.35004e-05
 Reference value :  1.35005e-05
 Reference value :  1.35009e-05
 Reference value :  1.35014e-05
 Reference value :  1.35022e-05
 Reference value :  1.35029e-05
 Reference value :  1.35036e-05
 Reference value :  1.35043e-05
 Reference value :  1.35052e-05
 Reference value :  1.35060e-05
 Reference value :  1.35068e-05
 Reference value :  1.35078e-05
 Reference value :  1.35087e-05
 Reference value :  1.35097e-05
 Reference value :  1.35107e-05
 Reference value :  1.35119e-05
 Reference value :  1.35136e-05
 Reference value :  1.35148e-05
 Reference value :  1.35162e-05
 Reference value :  1.35177e-05
 Reference value :  1.35193e-05
 Reference value :  1.35211e-05
 Reference value :  1.35226e-05
 Reference value :  1.35242e-05
 Reference value :  1.35257e-05
 Reference value :  1.35273e-05
 Reference value :  1.35290e-05
 Reference value :  1.35313e-05
 Reference value :  1.35337e-05
 Reference value :  1.35382e-05
 Reference value :  1.35445e-05
 Reference value :  1.35539e-05
 Reference value :  1.35642e-05
 Reference value :  1.35736e-05
 Reference value :  1.35834e-05
 Reference value :  1.35950e-05
 Reference value :  1.36117e-05
 Reference value :  1.36318e-05
 Reference value :  1.36511e-05
 Reference value :  1.36718e-05
 Reference value :  1.36932e-05
 Reference value :  1.37360e-05
 Reference value :  1.37501e-05
 Reference value :  1.37501e-05
 Reference value :  1.37501e-05
 Reference value :  1.37502e-05
 Reference value :  1.37502e-05
 Reference value :  1.37502e-05
 Reference value :  1.37502e-05
 Reference value :  1.37502e-05
 Reference value :  1.37502e-05
 Reference value :  1.37502e-05
 Reference value :  1.37502e-05
 Reference value :  1.37503e-05
 Reference value :  1.37504e-05
 Reference value :  1.37506e-05
 Reference value :  1.37509e-05
 Reference value :  1.37513e-05
 Reference value :  1.37519e-05
 Reference value :  1.37525e-05
 Reference value :  1.37532e-05
 Reference value :  1.37541e-05
 Reference value :  1.37553e-05
 Reference value :  1.37562e-05
 Reference value :  1.37571e-05
 Reference value :  1.37581e-05
 Reference value :  1.37597e-05
 Reference value :  1.37612e-05
 Reference value :  1.37637e-05
 Reference value :  1.37666e-05
 Reference value :  1.37719e-05
 Reference value :  1.37826e-05
 Reference value :  1.38013e-05
 Reference value :  1.38385e-05
 Reference value :  1.39102e-05
 Reference value :  1.40000e-05
 Reference value :  1.40000e-05
 Reference value :  1.40000e-05
 Reference value :  1.40001e-05
 Reference value :  1.40001e-05
 Reference value :  1.40001e-05
 Reference value :  1.40001e-05
 Reference value :  1.40001e-05
 Reference value :  1.40002e-05
 Reference value :  1.40002e-05
 Reference value :  1.40004e-05
 Reference value :  1.40005e-05
 Reference value :  1.40009e-05
 Reference value :  1.40014e-05
 Reference value :  1.40022e-05
 Reference value :  1.40028e-05
 Reference value :  1.40036e-05
 Reference value :  1.40042e-05
 Reference value :  1.40052e-05
 Reference value :  1.40063e-05
 Reference value :  1.40072e-05
 Reference value :  1.40086e-05
 Reference value :  1.40100e-05
 Reference value :  1.40113e-05
 Reference value :  1.40126e-05
 Reference value :  1.40138e-05
 Reference value :  1.40153e-05
 Reference value :  1.40168e-05
 Reference value :  1.40184e-05
 Reference value :  1.40218e-05
 Reference value :  1.40285e-05
 Reference value :  1.40407e-05
 Reference value :  1.40651e-05
 Reference value :  1.41126e-05
 Reference value :  1.42078e-05
 Reference value :  1.42501e-05
 Reference value :  1.42501e-05
 Reference value :  1.42501e-05
 Reference value :  1.42502e-05
 Reference value :  1.42502e-05
 Reference value :  1.42502e-05
 Reference value :  1.42502e-05
 Reference value :  1.42502e-05
 Reference value :  1.42502e-05
 Reference value :  1.42502e-05
 Reference value :  1.42502e-05
 Reference value :  1.42503e-05
 Reference value :  1.42504e-05
 Reference value :  1.42506e-05
 Reference value :  1.42509e-05
 Reference value :  1.42514e-05
 Reference value :  1.42519e-05
 Reference value :  1.42525e-05
 Reference value :  1.42533e-05
 Reference value :  1.42541e-05
 Reference value :  1.42553e-05
 Reference value :  1.42562e-05
 Reference value :  1.42572e-05
 Reference value :  1.42582e-05
 Reference value :  1.42593e-05
 Reference value :  1.42606e-05
 Reference value :  1.42618e-05
 Reference value :  1.42632e-05
 Reference value :  1.42654e-05
 Reference value :  1.42677e-05
 Reference value :  1.42713e-05
 Reference value :  1.42770e-05
 Reference value :  1.42885e-05
 Reference value :  1.43113e-05
 Reference value :  1.43570e-05
 Reference value :  1.44483e-05
 Reference value :  1.45000e-05
 Reference value :  1.45000e-05
 Reference value :  1.45000e-05
 Reference value :  1.45001e-05
 Reference value :  1.45001e-05
 Reference value :  1.45001e-05
 Reference value :  1.45001e-05
 Reference value :  1.45001e-05
 Reference value :  1.45002e-05
 Reference value :  1.45002e-05
 Reference value :  1.45004e-05
 Reference value :  1.45005e-05
 Reference value :  1.45009e-05
 Reference value :  1.45014e-05
 Reference value :  1.45022e-05
 Reference value :  1.45029e-05
 Reference value :  1.45036e-05
 Reference value :  1.45043e-05
 Reference value :  1.45052e-05
 Reference value :  1.45060e-05
 Reference value :  1.45068e-05
 Reference value :  1.45078e-05
 Reference value :  1.45086e-05
 Reference value :  1.45095e-05
 Reference value :  1.45105e-05
 Reference value :  1.45117e-05
 Reference value :  1.45135e-05
 Reference value :  1.45147e-05
 Reference value :  1.45161e-05
 Reference value :  1.45176e-05
 Reference value :  1.45193e-05
 Reference value :  1.45212e-05
 Reference value :  1.45224e-05
 Reference value :  1.45237e-05
 Reference value :  1.45250e-05
 Reference value :  1.45264e-05
 Reference value :  1.45282e-05
 Reference value :  1.45299e-05
 Reference value :  1.45326e-05
 Reference value :  1.45355e-05
 Reference value :  1.45414e-05
 Reference value :  1.45467e-05
 Reference value :  1.45523e-05
 Reference value :  1.45588e-05
 Reference value :  1.45686e-05
 Reference value :  1.45821e-05
 Reference value :  1.46073e-05
 Reference value :  1.46520e-05
 Reference value :  1.47413e-05
 Reference value :  1.47501e-05
 Reference value :  1.47501e-05
 Reference value :  1.47501e-05
 Reference value :  1.47502e-05
 Reference value :  1.47502e-05
 Reference value :  1.47502e-05
 Reference value :  1.47502e-05
 Reference value :  1.47502e-05
 Reference value :  1.47502e-05
 Reference value :  1.47502e-05
 Reference value :  1.47502e-05
 Reference value :  1.47503e-05
 Reference value :  1.47504e-05
 Reference value :  1.47506e-05
 Reference value :  1.47509e-05
 Reference value :  1.47514e-05
 Reference value :  1.47519e-05
 Reference value :  1.47525e-05
 Reference value :  1.47533e-05
 Reference value :  1.47541e-05
 Reference value :  1.47553e-05
 Reference value :  1.47562e-05
 Reference value :  1.47572e-05
 Reference value :  1.47582e-05
 Reference value :  1.47598e-05
 Reference value :  1.47613e-05
 Reference value :  1.47638e-05
 Reference value :  1.47668e-05
 Reference value :  1.47722e-05
 Reference value :  1.47830e-05
 Reference value :  1.48017e-05
 Reference value :  1.48390e-05
 Reference value :  1.49116e-05
 Reference value :  1.50000e-05
 Reference value :  1.50000e-05
 Reference value :  1.50000e-05
 Reference value :  1.50001e-05
 Reference value :  1.50001e-05
 Reference value :  1.50001e-05
 Reference value :  1.50001e-05
 Reference value :  1.50001e-05
 Reference value :  1.50002e-05
 Reference value :  1.50002e-05
 Reference value :  1.50004e-05
 Reference value :  1.50005e-05
 Reference value :  1.50009e-05
 Reference value :  1.50014e-05
 Reference value :  1.50022e-05
 Reference value :  1.50028e-05
 Reference value :  1.50036e-05
 Reference value :  1.50042e-05
 Reference value :  1.50052e-05
 Reference value :  1.50062e-05
 Reference value :  1.50072e-05
 Reference value :  1.50085e-05
 Reference value :  1.50100e-05
 Reference value :  1.50113e-05
 Reference value :  1.50128e-05
 Reference value :  1.50141e-05
 Reference value :  1.50156e-05
 Reference value :  1.50171e-05
 Reference value :  1.50189e-05
 Reference value :  1.50224e-05
 Reference value :  1.50285e-05
 Reference value :  1.50409e-05
 Reference value :  1.50649e-05
 Reference value :  1.51106e-05
 Reference value :  1.52020e-05
 Reference value :  1.52501e-05
 Reference value :  1.52501e-05
 Reference value :  1.52501e-05
 Reference value :  1.52502e-05
 Reference value :  1.52502e-05
 Reference value :  1.52502e-05
 Reference value :  1.52502e-05
 Reference value :  1.52502e-05
 Reference value :  1.52502e-05
 Reference value :  1.52502e-05
 Reference value :  1.52502e-05
 Reference value :  1.52503e-05
 Reference value :  1.52504e-05
 Reference value :  1.52506e-05
 Reference value :  1.52509e-05
 Reference value :  1.52514e-05
 Reference value :  1.52519e-05
 Reference value :  1.52525e-05
 Reference value :  1.52533e-05
 Reference value :  1.52541e-05
 Reference value :  1.52553e-05
 Reference value :  1.52562e-05
 Reference value :  1.52572e-05
 Reference value :  1.52582e-05
 Reference value :  1.52593e-05
 Reference value :  1.52606e-05
 Reference value :  1.52618e-05
 Reference value :  1.52632e-05
 Reference value :  1.52654e-05
 Reference value :  1.52677e-05
 Reference value :  1.52713e-05
 Reference value :  1.52770e-05
 Reference value :  1.52885e-05
 Reference value :  1.53114e-05
 Reference value :  1.53565e-05
 Reference value :  1.54469e-05
 Reference value :  1.55000e-05
 Reference value :  1.55008e-05
 Reference value :  1.55023e-05
 Reference value :  1.55031e-05
 Reference value :  1.55038e-05
 Reference value :  1.55048e-05
 Reference value :  1.55058e-05
 Reference value :  1.55066e-05
 Reference value :  1.55074e-05
 Reference value :  1.55083e-05
 Reference value :  1.55092e-05
 Reference value :  1.55102e-05
 Reference value :  1.55115e-05
 Reference value :  1.55129e-05
 Reference value :  1.55148e-05
 Reference value :  1.55166e-05
 Reference value :  1.55184e-05
 Reference value :  1.55202e-05
 Reference value :  1.55218e-05
 Reference value :  1.55234e-05
 Reference value :  1.55249e-05
 Reference value :  1.55265e-05
 Reference value :  1.55281e-05
 Reference value :  1.55299e-05
 Reference value :  1.55325e-05
 Reference value :  1.55352e-05
 Reference value :  1.55396e-05
 Reference value :  1.55444e-05
 Reference value :  1.55523e-05
 Reference value :  1.55623e-05
 Reference value :  1.55824e-05
 Reference value :  1.56111e-05
 Reference value :  1.56686e-05
 Reference value :  1.57501e-05
 Reference value :  1.57501e-05
 Reference value :  1.57501e-05
 Reference value :  1.57502e-05
 Reference value :  1.57502e-05
 Reference value :  1.57502e-05
 Reference value :  1.57502e-05
 Reference value :  1.57502e-05
 Reference value :  1.57502e-05
 Reference value :  1.57502e-05
 Reference value :  1.57502e-05
 Reference value :  1.57503e-05
 Reference value :  1.57504e-05
 Reference value :  1.57506e-05
 Reference value :  1.57509e-05
 Reference value :  1.57514e-05
 Reference value :  1.57519e-05
 Reference value :  1.57525e-05
 Reference value :  1.57533e-05
 Reference value :  1.57541e-05
 Reference value :  1.57553e-05
 Reference value :  1.57563e-05
 Reference value :  1.57573e-05
 Reference value :  1.57585e-05
 Reference value :  1.57600e-05
 Reference value :  1.57618e-05
 Reference value :  1.57641e-05
 Reference value :  1.57676e-05
 Reference value :  1.57734e-05
 Reference value :  1.57849e-05
 Reference value :  1.58047e-05
 Reference value :  1.58424e-05
 Reference value :  1.59122e-05
 Reference value :  1.60000e-05
 Reference value :  1.60000e-05
 Reference value :  1.60000e-05
 Reference value :  1.60001e-05
 Reference value :  1.60001e-05
 Reference value :  1.60001e-05
 Reference value :  1.60001e-05
 Reference value :  1.60001e-05
 Reference value :  1.60002e-05
 Reference value :  1.60002e-05
 Reference value :  1.60004e-05
 Reference value :  1.60005e-05
 Reference value :  1.60009e-05
 Reference value :  1.60015e-05
 Reference value :  1.60022e-05
 Reference value :  1.60028e-05
 Reference value :  1.60034e-05
 Reference value :  1.60041e-05
 Reference value :  1.60050e-05
 Reference value :  1.60059e-05
 Reference value :  1.60069e-05
 Reference value :  1.60081e-05
 Reference value :  1.60096e-05
 Reference value :  1.60111e-05
 Reference value :  1.60125e-05
 Reference value :  1.60139e-05
 Reference value :  1.60155e-05
 Reference value :  1.60171e-05
 Reference value :  1.60192e-05
 Reference value :  1.60221e-05
 Reference value :  1.60272e-05
 Reference value :  1.60360e-05
 Reference value :  1.60521e-05
 Reference value :  1.60820e-05
 Reference value :  1.61374e-05
 Reference value :  1.62392e-05
 Reference value :  1.62501e-05
 Reference value :  1.62501e-05
 Reference value :  1.62501e-05
 Reference value :  1.62502e-05
 Reference value :  1.62502e-05
 Reference value :  1.62502e-05
 Reference value :  1.62502e-05
 Reference value :  1.62502e-05
 Reference value :  1.62502e-05
 Reference value :  1.62502e-05
 Reference value :  1.62502e-05
 Reference value :  1.62503e-05
 Reference value :  1.62504e-05
 Reference value :  1.62506e-05
 Reference value :  1.62509e-05
 Reference value :  1.62513e-05
 Reference value :  1.62519e-05
 Reference value :  1.62525e-05
 Reference value :  1.62532e-05
 Reference value :  1.62541e-05
 Reference value :  1.62553e-05
 Reference value :  1.62562e-05
 Reference value :  1.62572e-05
 Reference value :  1.62582e-05
 Reference value :  1.62593e-05
 Reference value :  1.62606e-05
 Reference value :  1.62618e-05
 Reference value :  1.62632e-05
 Reference value :  1.62654e-05
 Reference value :  1.62677e-05
 Reference value :  1.62713e-05
 Reference value :  1.62771e-05
 Reference value :  1.62886e-05
 Reference value :  1.63117e-05
 Reference value :  1.63547e-05
 Reference value :  1.64407e-05
 Reference value :  1.65000e-05
 Reference value :  1.65000e-05
 Reference value :  1.65000e-05
 Reference value :  1.65001e-05
 Reference value :  1.65001e-05
 Reference value :  1.65001e-05
 Reference value :  1.65001e-05
 Reference value :  1.65001e-05
 Reference value :  1.65002e-05
 Reference value :  1.65002e-05
 Reference value :  1.65004e-05
 Reference value :  1.65005e-05
 Reference value :  1.65009e-05
 Reference value :  1.65015e-05
 Reference value :  1.65022e-05
 Reference value :  1.65028e-05
 Reference value :  1.65034e-05
 Reference value :  1.65041e-05
 Reference value :  1.65050e-05
 Reference value :  1.65058e-05
 Reference value :  1.65067e-05
 Reference value :  1.65076e-05
 Reference value :  1.65088e-05
 Reference value :  1.65098e-05
 Reference value :  1.65108e-05
 Reference value :  1.65122e-05
 Reference value :  1.65138e-05
 Reference value :  1.65151e-05
 Reference value :  1.65166e-05
 Reference value :  1.65182e-05
 Reference value :  1.65200e-05
 Reference value :  1.65220e-05
 Reference value :  1.65237e-05
 Reference value :  1.65254e-05
 Reference value :  1.65271e-05
 Reference value :  1.65297e-05
 Reference value :  1.65334e-05
 Reference value :  1.65393e-05
 Reference value :  1.65494e-05
 Reference value :  1.65647e-05
 Reference value :  1.65923e-05
 Reference value :  1.66429e-05
 Reference value :  1.67353e-05
 Reference value :  1.67501e-05
 Reference value :  1.67501e-05
 Reference value :  1.67501e-05
 Reference value :  1.67502e-05
 Reference value :  1.67502e-05
 Reference value :  1.67502e-05
 Reference value :  1.67502e-05
 Reference value :  1.67502e-05
 Reference value :  1.67502e-05
 Reference value :  1.67502e-05
 Reference value :  1.67502e-05
 Reference value :  1.67503e-05
 Reference value :  1.67504e-05
 Reference value :  1.67506e-05
 Reference value :  1.67510e-05
 Reference value :  1.67514e-05
 Reference value :  1.67519e-05
 Reference value :  1.67525e-05
 Reference value :  1.67533e-05
 Reference value :  1.67542e-05
 Reference value :  1.67553e-05
 Reference value :  1.67564e-05
 Reference value :  1.67578e-05
 Reference value :  1.67594e-05
 Reference value :  1.67613e-05
 Reference value :  1.67640e-05
 Reference value :  1.67667e-05
 Reference value :  1.67719e-05
 Reference value :  1.67822e-05
 Reference value :  1.67989e-05
 Reference value :  1.68323e-05
 Reference value :  1.68910e-05
 Reference value :  1.70000e-05
 Reference value :  1.70017e-05
 Reference value :  1.70051e-05
 Reference value :  1.70068e-05
 Reference value :  1.70085e-05
 Reference value :  1.70109e-05
 Reference value :  1.70130e-05
 Reference value :  1.70149e-05
 Reference value :  1.70169e-05
 Reference value :  1.70191e-05
 Reference value :  1.70216e-05
 Reference value :  1.70244e-05
 Reference value :  1.70285e-05
 Reference value :  1.70333e-05
 Reference value :  1.70369e-05
 Reference value :  1.70397e-05
 Reference value :  1.70425e-05
 Reference value :  1.70452e-05
 Reference value :  1.70481e-05
 Reference value :  1.70509e-05
 Reference value :  1.70552e-05
 Reference value :  1.70587e-05
 Reference value :  1.70621e-05
 Reference value :  1.70649e-05
 Reference value :  1.70679e-05
 Reference value :  1.70738e-05
 Reference value :  1.70816e-05
 Reference value :  1.70966e-05
 Reference value :  1.71205e-05
 Reference value :  1.71610e-05
 Reference value :  1.72237e-05
 Reference value :  1.72501e-05
 Reference value :  1.72501e-05
 Reference value :  1.72501e-05
 Reference value :  1.72502e-05
 Reference value :  1.72502e-05
 Reference value :  1.72502e-05
 Reference value :  1.72502e-05
 Reference value :  1.72502e-05
 Reference value :  1.72502e-05
 Reference value :  1.72502e-05
 Reference value :  1.72502e-05
 Reference value :  1.72503e-05
 Reference value :  1.72504e-05
 Reference value :  1.72506e-05
 Reference value :  1.72510e-05
 Reference value :  1.72514e-05
 Reference value :  1.72519e-05
 Reference value :  1.72525e-05
 Reference value :  1.72533e-05
 Reference value :  1.72542e-05
 Reference value :  1.72554e-05
 Reference value :  1.72564e-05
 Reference value :  1.72574e-05
 Reference value :  1.72586e-05
 Reference value :  1.72601e-05
 Reference value :  1.72621e-05
 Reference value :  1.72643e-05
 Reference value :  1.72682e-05
 Reference value :  1.72746e-05
 Reference value :  1.72867e-05
 Reference value :  1.73078e-05
 Reference value :  1.73468e-05
 Reference value :  1.74177e-05
 Reference value :  1.75000e-05
 Reference value :  1.75000e-05
 Reference value :  1.75000e-05
 Reference value :  1.75001e-05
 Reference value :  1.75001e-05
 Reference value :  1.75001e-05
 Reference value :  1.75001e-05
 Reference value :  1.75001e-05
 Reference value :  1.75002e-05
 Reference value :  1.75002e-05
 Reference value :  1.75004e-05
 Reference value :  1.75005e-05
 Reference value :  1.75009e-05
 Reference value :  1.75015e-05
 Reference value :  1.75022e-05
 Reference value :  1.75028e-05
 Reference value :  1.75035e-05
 Reference value :  1.75042e-05
 Reference value :  1.75052e-05
 Reference value :  1.75061e-05
 Reference value :  1.75071e-05
 Reference value :  1.75086e-05
 Reference value :  1.75099e-05
 Reference value :  1.75118e-05
 Reference value :  1.75141e-05
 Reference value :  1.75160e-05
 Reference value :  1.75179e-05
 Reference value :  1.75199e-05
 Reference value :  1.75222e-05
 Reference value :  1.75247e-05
 Reference value :  1.75273e-05
 Reference value :  1.75323e-05
 Reference value :  1.75404e-05
 Reference value :  1.75501e-05
 Reference value :  1.75696e-05
 Reference value :  1.76085e-05
 Reference value :  1.76774e-05
 Reference value :  1.77501e-05
 Reference value :  1.77501e-05
 Reference value :  1.77501e-05
 Reference value :  1.77502e-05
 Reference value :  1.77502e-05
 Reference value :  1.77502e-05
 Reference value :  1.77502e-05
 Reference value :  1.77502e-05
 Reference value :  1.77502e-05
 Reference value :  1.77502e-05
 Reference value :  1.77502e-05
 Reference value :  1.77503e-05
 Reference value :  1.77504e-05
 Reference value :  1.77506e-05
 Reference value :  1.77510e-05
 Reference value :  1.77514e-05
 Reference value :  1.77519e-05
 Reference value :  1.77525e-05
 Reference value :  1.77533e-05
 Reference value :  1.77542e-05
 Reference value :  1.77554e-05
 Reference value :  1.77565e-05
 Reference value :  1.77575e-05
 Reference value :  1.77586e-05
 Reference value :  1.77597e-05
 Reference value :  1.77610e-05
 Reference value :  1.77623e-05
 Reference value :  1.77638e-05
 Reference value :  1.77660e-05
 Reference value :  1.77683e-05
 Reference value :  1.77723e-05
 Reference value :  1.77792e-05
 Reference value :  1.77894e-05
 Reference value :  1.78081e-05
 Reference value :  1.78373e-05
 Reference value :  1.78870e-05
 Reference value :  1.79863e-05
 Reference value :  1.80000e-05
No. of Data Rows : 2733
ngspice-44 done
