
Note: Compatibility modes selected: hs a


Circuit: ** sch_path: /home/samantha/cace/sar-adc-using-sky130-pdk/runs/run_2025-09-05_16-28-34/parameters/power/run_13/power_consumption.sch

option SCALE: Scale is set to 1e-06 for instance and model parameters
option SCALE: Scale is set to 1e-06 for instance and model parameters
option SCALE: Scale is set to 1e-06 for instance and model parameters
option SCALE: Scale is set to 1e-06 for instance and model parameters
Doing analysis at TEMP = 27.000000 and TNOM = 27.000000

Using KLU as Direct Linear Solver
 Reference value :  0.00000e+00
 Reference value :  1.00000e-12
 Reference value :  4.00000e-12
 Reference value :  1.60000e-11
 Reference value :  6.40000e-11
 Reference value :  1.06400e-10
 Reference value :  1.44800e-10
 Reference value :  2.98400e-10
 Reference value :  7.14685e-10
 Reference value :  1.44317e-09
 Reference value :  1.79863e-09
 Reference value :  2.63984e-09
 Reference value :  3.02235e-09
 Reference value :  3.97670e-09
 Reference value :  5.02617e-09
 Reference value :  5.57310e-09
 Reference value :  6.38791e-09
 Reference value :  7.99864e-09
 Reference value :  9.86575e-09
 Reference value :  1.22287e-08
 Reference value :  1.29957e-08
 Reference value :  1.45149e-08
 Reference value :  1.64789e-08
 Reference value :  1.96004e-08
 Reference value :  2.28825e-08
 Reference value :  2.38567e-08
 Reference value :  2.58210e-08
 Reference value :  2.85670e-08
 Reference value :  3.37693e-08
 Reference value :  4.26217e-08
 Reference value :  5.40241e-08
 Reference value :  7.86586e-08
 Reference value :  2.11784e-07
 Reference value :  2.50110e-07
 Reference value :  2.50170e-07
 Reference value :  2.50207e-07
 Reference value :  2.50250e-07
 Reference value :  2.50378e-07
 Reference value :  2.50654e-07
 Reference value :  2.51239e-07
 Reference value :  2.51656e-07
 Reference value :  2.52708e-07
 Reference value :  2.53485e-07
 Reference value :  2.54051e-07
 Reference value :  2.55368e-07
 Reference value :  2.56961e-07
 Reference value :  2.59498e-07
 Reference value :  2.65379e-07
 Reference value :  2.83589e-07
 Reference value :  4.04347e-07
 Reference value :  5.00010e-07
 Reference value :  5.00070e-07
 Reference value :  5.00108e-07
 Reference value :  5.00155e-07
 Reference value :  5.00335e-07
 Reference value :  5.00812e-07
 Reference value :  5.01269e-07
 Reference value :  5.02175e-07
 Reference value :  5.03239e-07
 Reference value :  5.04472e-07
 Reference value :  5.06234e-07
 Reference value :  5.08780e-07
 Reference value :  5.09983e-07
 Reference value :  5.12803e-07
 Reference value :  5.14517e-07
 Reference value :  5.16058e-07
 Reference value :  5.20173e-07
 Reference value :  5.26891e-07
 Reference value :  5.42978e-07
 Reference value :  5.97806e-07
 Reference value :  7.50100e-07
 Reference value :  7.50130e-07
 Reference value :  7.50200e-07
 Reference value :  7.50223e-07
 Reference value :  7.50440e-07
 Reference value :  7.50795e-07
 Reference value :  7.51624e-07
 Reference value :  7.52670e-07
 Reference value :  7.53420e-07
 Reference value :  7.53946e-07
 Reference value :  7.54540e-07
 Reference value :  7.55092e-07
 Reference value :  7.56532e-07
 Reference value :  7.59013e-07
 Reference value :  7.64881e-07
 Reference value :  7.86721e-07
 Reference value :  9.90561e-07
 Reference value :  1.00001e-06
 Reference value :  1.00007e-06
 Reference value :  1.00011e-06
 Reference value :  1.00015e-06
 Reference value :  1.00033e-06
 Reference value :  1.00081e-06
 Reference value :  1.00178e-06
 Reference value :  1.00220e-06
 Reference value :  1.00330e-06
 Reference value :  1.00394e-06
 Reference value :  1.00443e-06
 Reference value :  1.00502e-06
 Reference value :  1.00556e-06
 Reference value :  1.00618e-06
 Reference value :  1.00763e-06
 Reference value :  1.01004e-06
 Reference value :  1.01150e-06
 Reference value :  1.01276e-06
 Reference value :  1.01380e-06
 Reference value :  1.01481e-06
 Reference value :  1.01695e-06
 Reference value :  1.01926e-06
 Reference value :  1.02252e-06
 Reference value :  1.03152e-06
 Reference value :  1.06059e-06
 Reference value :  1.15806e-06
 Reference value :  1.20756e-06
 Reference value :  1.25010e-06
 Reference value :  1.25011e-06
 Reference value :  1.25017e-06
 Reference value :  1.25021e-06
 Reference value :  1.25025e-06
 Reference value :  1.25044e-06
 Reference value :  1.25080e-06
 Reference value :  1.25162e-06
 Reference value :  1.25210e-06
 Reference value :  1.25267e-06
 Reference value :  1.25342e-06
 Reference value :  1.25392e-06
 Reference value :  1.25517e-06
 Reference value :  1.25674e-06
 Reference value :  1.25818e-06
 Reference value :  1.26251e-06
 Reference value :  1.26667e-06
 Reference value :  1.27562e-06
 Reference value :  1.28536e-06
 Reference value :  1.31565e-06
 Reference value :  1.42930e-06
 Reference value :  1.50001e-06
 Reference value :  1.50007e-06
 Reference value :  1.50011e-06
 Reference value :  1.50015e-06
 Reference value :  1.50033e-06
 Reference value :  1.50081e-06
 Reference value :  1.50178e-06
 Reference value :  1.50220e-06
 Reference value :  1.50328e-06
 Reference value :  1.50394e-06
 Reference value :  1.50469e-06
 Reference value :  1.50654e-06
 Reference value :  1.50734e-06
 Reference value :  1.50822e-06
 Reference value :  1.50909e-06
 Reference value :  1.51116e-06
 Reference value :  1.51487e-06
 Reference value :  1.52516e-06
 Reference value :  1.55713e-06
 Reference value :  1.67801e-06
 Reference value :  1.75011e-06
 Reference value :  1.75017e-06
 Reference value :  1.75020e-06
 Reference value :  1.75022e-06
 Reference value :  1.75032e-06
 Reference value :  1.75058e-06
 Reference value :  1.75122e-06
 Reference value :  1.75164e-06
 Reference value :  1.75269e-06
 Reference value :  1.75346e-06
 Reference value :  1.75398e-06
 Reference value :  1.75513e-06
 Reference value :  1.75659e-06
 Reference value :  1.75840e-06
 Reference value :  1.76060e-06
 Reference value :  1.76456e-06
 Reference value :  1.77440e-06
 Reference value :  1.80572e-06
 Reference value :  1.92354e-06
 Reference value :  2.00001e-06
 Reference value :  2.00007e-06
 Reference value :  2.00011e-06
 Reference value :  2.00015e-06
 Reference value :  2.00033e-06
 Reference value :  2.00081e-06
 Reference value :  2.00127e-06
 Reference value :  2.00218e-06
 Reference value :  2.00333e-06
 Reference value :  2.00443e-06
 Reference value :  2.00556e-06
 Reference value :  2.00617e-06
 Reference value :  2.00763e-06
 Reference value :  2.00976e-06
 Reference value :  2.01078e-06
 Reference value :  2.01182e-06
 Reference value :  2.01298e-06
 Reference value :  2.01381e-06
 Reference value :  2.01558e-06
 Reference value :  2.01756e-06
 Reference value :  2.01874e-06
 Reference value :  2.02178e-06
 Reference value :  2.02795e-06
 Reference value :  2.04402e-06
 Reference value :  2.05141e-06
 Reference value :  2.05474e-06
 Reference value :  2.06126e-06
 Reference value :  2.07121e-06
 Reference value :  2.09150e-06
 Reference value :  2.13547e-06
 Reference value :  2.25010e-06
 Reference value :  2.25013e-06
 Reference value :  2.25020e-06
 Reference value :  2.25022e-06
 Reference value :  2.25032e-06
 Reference value :  2.25058e-06
 Reference value :  2.25122e-06
 Reference value :  2.25164e-06
 Reference value :  2.25269e-06
 Reference value :  2.25347e-06
 Reference value :  2.25400e-06
 Reference value :  2.25460e-06
 Reference value :  2.25524e-06
 Reference value :  2.25682e-06
 Reference value :  2.25983e-06
 Reference value :  2.26719e-06
 Reference value :  2.29447e-06
 Reference value :  2.40360e-06
 Reference value :  2.50001e-06
 Reference value :  2.50007e-06
 Reference value :  2.50011e-06
 Reference value :  2.50015e-06
 Reference value :  2.50033e-06
 Reference value :  2.50049e-06
 Reference value :  2.50127e-06
 Reference value :  2.50174e-06
 Reference value :  2.50218e-06
 Reference value :  2.50267e-06
 Reference value :  2.50322e-06
 Reference value :  2.50440e-06
 Reference value :  2.50506e-06
 Reference value :  2.50614e-06
 Reference value :  2.50716e-06
 Reference value :  2.50816e-06
 Reference value :  2.50918e-06
 Reference value :  2.51124e-06
 Reference value :  2.51499e-06
 Reference value :  2.52636e-06
 Reference value :  2.56587e-06
 Reference value :  2.70535e-06
 Reference value :  2.75011e-06
 Reference value :  2.75017e-06
 Reference value :  2.75021e-06
 Reference value :  2.75026e-06
 Reference value :  2.75044e-06
 Reference value :  2.75080e-06
 Reference value :  2.75164e-06
 Reference value :  2.75212e-06
 Reference value :  2.75269e-06
 Reference value :  2.75347e-06
 Reference value :  2.75399e-06
 Reference value :  2.75459e-06
 Reference value :  2.75515e-06
 Reference value :  2.75578e-06
 Reference value :  2.75662e-06
 Reference value :  2.75923e-06
 Reference value :  2.76547e-06
 Reference value :  2.77342e-06
 Reference value :  2.78932e-06
 Reference value :  2.88469e-06
 Reference value :  3.00001e-06
 Reference value :  3.00003e-06
 Reference value :  3.00010e-06
 Reference value :  3.00012e-06
 Reference value :  3.00022e-06
 Reference value :  3.00049e-06
 Reference value :  3.00127e-06
 Reference value :  3.00174e-06
 Reference value :  3.00218e-06
 Reference value :  3.00267e-06
 Reference value :  3.00332e-06
 Reference value :  3.00392e-06
 Reference value :  3.00443e-06
 Reference value :  3.00501e-06
 Reference value :  3.00556e-06
 Reference value :  3.00618e-06
 Reference value :  3.00764e-06
 Reference value :  3.01006e-06
 Reference value :  3.01275e-06
 Reference value :  3.01379e-06
 Reference value :  3.01479e-06
 Reference value :  3.01586e-06
 Reference value :  3.01693e-06
 Reference value :  3.01804e-06
 Reference value :  3.02076e-06
 Reference value :  3.02568e-06
 Reference value :  3.03154e-06
 Reference value :  3.04158e-06
 Reference value :  3.06128e-06
 Reference value :  3.08673e-06
 Reference value :  3.12166e-06
 Reference value :  3.20030e-06
 Reference value :  3.25010e-06
 Reference value :  3.25013e-06
 Reference value :  3.25020e-06
 Reference value :  3.25022e-06
 Reference value :  3.25032e-06
 Reference value :  3.25057e-06
 Reference value :  3.25119e-06
 Reference value :  3.25162e-06
 Reference value :  3.25210e-06
 Reference value :  3.25267e-06
 Reference value :  3.25342e-06
 Reference value :  3.25395e-06
 Reference value :  3.25455e-06
 Reference value :  3.25515e-06
 Reference value :  3.25580e-06
 Reference value :  3.25796e-06
 Reference value :  3.25953e-06
 Reference value :  3.26634e-06
 Reference value :  3.29171e-06
 Reference value :  3.32553e-06
 Reference value :  3.50000e-06
 Reference value :  3.50001e-06
 Reference value :  3.50003e-06
 Reference value :  3.50010e-06
 Reference value :  3.50012e-06
 Reference value :  3.50022e-06
 Reference value :  3.50033e-06
 Reference value :  3.50049e-06
 Reference value :  3.50081e-06
 Reference value :  3.50127e-06
 Reference value :  3.50174e-06
 Reference value :  3.50218e-06
 Reference value :  3.50322e-06
 Reference value :  3.50381e-06
 Reference value :  3.50441e-06
 Reference value :  3.50507e-06
 Reference value :  3.50616e-06
 Reference value :  3.50718e-06
 Reference value :  3.50831e-06
 Reference value :  3.50933e-06
 Reference value :  3.51038e-06
 Reference value :  3.51155e-06
 Reference value :  3.51552e-06
 Reference value :  3.51923e-06
 Reference value :  3.52641e-06
 Reference value :  3.56194e-06
 Reference value :  3.60628e-06
 Reference value :  3.68514e-06
 Reference value :  3.75010e-06
 Reference value :  3.75011e-06
 Reference value :  3.75013e-06
 Reference value :  3.75017e-06
 Reference value :  3.75020e-06
 Reference value :  3.75022e-06
 Reference value :  3.75026e-06
 Reference value :  3.75032e-06
 Reference value :  3.75044e-06
 Reference value :  3.75058e-06
 Reference value :  3.75080e-06
 Reference value :  3.75122e-06
 Reference value :  3.75164e-06
 Reference value :  3.75212e-06
 Reference value :  3.75269e-06
 Reference value :  3.75347e-06
 Reference value :  3.75399e-06
 Reference value :  3.75515e-06
 Reference value :  3.75578e-06
 Reference value :  3.75661e-06
 Reference value :  3.75922e-06
 Reference value :  3.76149e-06
 Reference value :  3.77336e-06
 Reference value :  3.82083e-06
 Reference value :  3.88414e-06
 Reference value :  4.00000e-06
 Reference value :  4.00001e-06
 Reference value :  4.00003e-06
 Reference value :  4.00007e-06
 Reference value :  4.00010e-06
 Reference value :  4.00012e-06
 Reference value :  4.00022e-06
 Reference value :  4.00033e-06
 Reference value :  4.00049e-06
 Reference value :  4.00081e-06
 Reference value :  4.00127e-06
 Reference value :  4.00174e-06
 Reference value :  4.00218e-06
 Reference value :  4.00267e-06
 Reference value :  4.00332e-06
 Reference value :  4.00392e-06
 Reference value :  4.00443e-06
 Reference value :  4.00501e-06
 Reference value :  4.00556e-06
 Reference value :  4.00618e-06
 Reference value :  4.00682e-06
 Reference value :  4.00764e-06
 Reference value :  4.00867e-06
 Reference value :  4.01006e-06
 Reference value :  4.01153e-06
 Reference value :  4.01288e-06
 Reference value :  4.01394e-06
 Reference value :  4.01496e-06
 Reference value :  4.01605e-06
 Reference value :  4.01709e-06
 Reference value :  4.01819e-06
 Reference value :  4.01936e-06
 Reference value :  4.02104e-06
 Reference value :  4.02271e-06
 Reference value :  4.02605e-06
 Reference value :  4.03563e-06
 Reference value :  4.04156e-06
 Reference value :  4.04578e-06
 Reference value :  4.04998e-06
 Reference value :  4.05470e-06
 Reference value :  4.05984e-06
 Reference value :  4.07166e-06
 Reference value :  4.07768e-06
 Reference value :  4.08851e-06
 Reference value :  4.10197e-06
 Reference value :  4.12255e-06
 Reference value :  4.19864e-06
 Reference value :  4.25011e-06
 Reference value :  4.25013e-06
 Reference value :  4.25017e-06
 Reference value :  4.25020e-06
 Reference value :  4.25021e-06
 Reference value :  4.25022e-06
 Reference value :  4.25025e-06
 Reference value :  4.25032e-06
 Reference value :  4.25038e-06
 Reference value :  4.25052e-06
 Reference value :  4.25094e-06
 Reference value :  4.25133e-06
 Reference value :  4.25178e-06
 Reference value :  4.25226e-06
 Reference value :  4.25292e-06
 Reference value :  4.25375e-06
 Reference value :  4.25430e-06
 Reference value :  4.25493e-06
 Reference value :  4.25563e-06
 Reference value :  4.25653e-06
 Reference value :  4.25739e-06
 Reference value :  4.26113e-06
 Reference value :  4.26486e-06
 Reference value :  4.27197e-06
 Reference value :  4.28314e-06
 Reference value :  4.30438e-06
 Reference value :  4.34055e-06
 Reference value :  4.39031e-06
 Reference value :  4.45384e-06
 Reference value :  4.50000e-06
 Reference value :  4.50001e-06
 Reference value :  4.50003e-06
 Reference value :  4.50007e-06
 Reference value :  4.50010e-06
 Reference value :  4.50011e-06
 Reference value :  4.50012e-06
 Reference value :  4.50015e-06
 Reference value :  4.50022e-06
 Reference value :  4.50034e-06
 Reference value :  4.50059e-06
 Reference value :  4.50095e-06
 Reference value :  4.50158e-06
 Reference value :  4.50216e-06
 Reference value :  4.50264e-06
 Reference value :  4.50317e-06
 Reference value :  4.50376e-06
 Reference value :  4.50441e-06
 Reference value :  4.50511e-06
 Reference value :  4.50602e-06
 Reference value :  4.50707e-06
 Reference value :  4.50793e-06
 Reference value :  4.50887e-06
 Reference value :  4.50982e-06
 Reference value :  4.51085e-06
 Reference value :  4.51233e-06
 Reference value :  4.51692e-06
 Reference value :  4.52166e-06
 Reference value :  4.52987e-06
 Reference value :  4.54247e-06
 Reference value :  4.55010e-06
 Reference value :  4.57087e-06
 Reference value :  4.60575e-06
 Reference value :  4.64790e-06
 Reference value :  4.72772e-06
 Reference value :  4.75011e-06
 Reference value :  4.75013e-06
 Reference value :  4.75017e-06
 Reference value :  4.75020e-06
 Reference value :  4.75021e-06
 Reference value :  4.75025e-06
 Reference value :  4.75032e-06
 Reference value :  4.75038e-06
 Reference value :  4.75052e-06
 Reference value :  4.75093e-06
 Reference value :  4.75133e-06
 Reference value :  4.75178e-06
 Reference value :  4.75226e-06
 Reference value :  4.75292e-06
 Reference value :  4.75381e-06
 Reference value :  4.75438e-06
 Reference value :  4.75503e-06
 Reference value :  4.75581e-06
 Reference value :  4.75756e-06
 Reference value :  4.75865e-06
 Reference value :  4.76408e-06
 Reference value :  4.77984e-06
 Reference value :  4.82849e-06
 Reference value :  4.98118e-06
 Reference value :  5.00001e-06
 Reference value :  5.00003e-06
 Reference value :  5.00010e-06
 Reference value :  5.00012e-06
 Reference value :  5.00022e-06
 Reference value :  5.00059e-06
 Reference value :  5.00095e-06
 Reference value :  5.00158e-06
 Reference value :  5.00216e-06
 Reference value :  5.00265e-06
 Reference value :  5.00321e-06
 Reference value :  5.00379e-06
 Reference value :  5.00445e-06
 Reference value :  5.00502e-06
 Reference value :  5.00563e-06
 Reference value :  5.00625e-06
 Reference value :  5.00691e-06
 Reference value :  5.00780e-06
 Reference value :  5.00882e-06
 Reference value :  5.01025e-06
 Reference value :  5.01168e-06
 Reference value :  5.01297e-06
 Reference value :  5.01399e-06
 Reference value :  5.01496e-06
 Reference value :  5.01606e-06
 Reference value :  5.01710e-06
 Reference value :  5.01819e-06
 Reference value :  5.01937e-06
 Reference value :  5.02104e-06
 Reference value :  5.02271e-06
 Reference value :  5.02605e-06
 Reference value :  5.03162e-06
 Reference value :  5.03688e-06
 Reference value :  5.04037e-06
 Reference value :  5.04446e-06
 Reference value :  5.04886e-06
 Reference value :  5.05357e-06
 Reference value :  5.05981e-06
 Reference value :  5.06603e-06
 Reference value :  5.08331e-06
 Reference value :  5.09669e-06
 Reference value :  5.11756e-06
 Reference value :  5.20365e-06
 Reference value :  5.25011e-06
 Reference value :  5.25013e-06
 Reference value :  5.25020e-06
 Reference value :  5.25021e-06
 Reference value :  5.25022e-06
 Reference value :  5.25025e-06
 Reference value :  5.25032e-06
 Reference value :  5.25038e-06
 Reference value :  5.25052e-06
 Reference value :  5.25067e-06
 Reference value :  5.25129e-06
 Reference value :  5.25175e-06
 Reference value :  5.25221e-06
 Reference value :  5.25286e-06
 Reference value :  5.25372e-06
 Reference value :  5.25428e-06
 Reference value :  5.25491e-06
 Reference value :  5.25565e-06
 Reference value :  5.25652e-06
 Reference value :  5.25739e-06
 Reference value :  5.25896e-06
 Reference value :  5.26489e-06
 Reference value :  5.28347e-06
 Reference value :  5.34251e-06
 Reference value :  5.50000e-06
 Reference value :  5.50001e-06
 Reference value :  5.50003e-06
 Reference value :  5.50007e-06
 Reference value :  5.50010e-06
 Reference value :  5.50011e-06
 Reference value :  5.50012e-06
 Reference value :  5.50022e-06
 Reference value :  5.50034e-06
 Reference value :  5.50059e-06
 Reference value :  5.50095e-06
 Reference value :  5.50158e-06
 Reference value :  5.50216e-06
 Reference value :  5.50263e-06
 Reference value :  5.50317e-06
 Reference value :  5.50375e-06
 Reference value :  5.50441e-06
 Reference value :  5.50512e-06
 Reference value :  5.50604e-06
 Reference value :  5.50709e-06
 Reference value :  5.50798e-06
 Reference value :  5.50892e-06
 Reference value :  5.50992e-06
 Reference value :  5.51098e-06
 Reference value :  5.51254e-06
 Reference value :  5.51760e-06
 Reference value :  5.53284e-06
 Reference value :  5.59023e-06
 Reference value :  5.75010e-06
 Reference value :  5.75013e-06
 Reference value :  5.75020e-06
 Reference value :  5.75022e-06
 Reference value :  5.75025e-06
 Reference value :  5.75031e-06
 Reference value :  5.75051e-06
 Reference value :  5.75068e-06
 Reference value :  5.75132e-06
 Reference value :  5.75176e-06
 Reference value :  5.75224e-06
 Reference value :  5.75289e-06
 Reference value :  5.75377e-06
 Reference value :  5.75433e-06
 Reference value :  5.75497e-06
 Reference value :  5.75565e-06
 Reference value :  5.75635e-06
 Reference value :  5.75718e-06
 Reference value :  5.75814e-06
 Reference value :  5.75927e-06
 Reference value :  5.76031e-06
 Reference value :  5.76190e-06
 Reference value :  5.76682e-06
 Reference value :  5.78129e-06
 Reference value :  5.82422e-06
 Reference value :  5.87031e-06
 Reference value :  6.00000e-06
 Reference value :  6.00001e-06
 Reference value :  6.00003e-06
 Reference value :  6.00007e-06
 Reference value :  6.00010e-06
 Reference value :  6.00011e-06
 Reference value :  6.00012e-06
 Reference value :  6.00015e-06
 Reference value :  6.00022e-06
 Reference value :  6.00034e-06
 Reference value :  6.00059e-06
 Reference value :  6.00095e-06
 Reference value :  6.00158e-06
 Reference value :  6.00216e-06
 Reference value :  6.00265e-06
 Reference value :  6.00321e-06
 Reference value :  6.00378e-06
 Reference value :  6.00443e-06
 Reference value :  6.00494e-06
 Reference value :  6.00552e-06
 Reference value :  6.00605e-06
 Reference value :  6.00665e-06
 Reference value :  6.00753e-06
 Reference value :  6.00835e-06
 Reference value :  6.00962e-06
 Reference value :  6.01053e-06
 Reference value :  6.01152e-06
 Reference value :  6.01267e-06
 Reference value :  6.01371e-06
 Reference value :  6.01467e-06
 Reference value :  6.01576e-06
 Reference value :  6.01685e-06
 Reference value :  6.01794e-06
 Reference value :  6.01923e-06
 Reference value :  6.02055e-06
 Reference value :  6.02248e-06
 Reference value :  6.02523e-06
 Reference value :  6.02834e-06
 Reference value :  6.03171e-06
 Reference value :  6.03709e-06
 Reference value :  6.04238e-06
 Reference value :  6.05072e-06
 Reference value :  6.06197e-06
 Reference value :  6.07402e-06
 Reference value :  6.08660e-06
 Reference value :  6.10097e-06
 Reference value :  6.11631e-06
 Reference value :  6.20837e-06
 Reference value :  6.25011e-06
 Reference value :  6.25017e-06
 Reference value :  6.25021e-06
 Reference value :  6.25025e-06
 Reference value :  6.25031e-06
 Reference value :  6.25038e-06
 Reference value :  6.25051e-06
 Reference value :  6.25066e-06
 Reference value :  6.25091e-06
 Reference value :  6.25129e-06
 Reference value :  6.25173e-06
 Reference value :  6.25220e-06
 Reference value :  6.25283e-06
 Reference value :  6.25369e-06
 Reference value :  6.25426e-06
 Reference value :  6.25488e-06
 Reference value :  6.25569e-06
 Reference value :  6.25652e-06
 Reference value :  6.25742e-06
 Reference value :  6.25899e-06
 Reference value :  6.26119e-06
 Reference value :  6.26493e-06
 Reference value :  6.27230e-06
 Reference value :  6.28377e-06
 Reference value :  6.30594e-06
 Reference value :  6.34394e-06
 Reference value :  6.41173e-06
 Reference value :  6.50000e-06
 Reference value :  6.50001e-06
 Reference value :  6.50003e-06
 Reference value :  6.50007e-06
 Reference value :  6.50010e-06
 Reference value :  6.50011e-06
 Reference value :  6.50012e-06
 Reference value :  6.50022e-06
 Reference value :  6.50034e-06
 Reference value :  6.50059e-06
 Reference value :  6.50095e-06
 Reference value :  6.50158e-06
 Reference value :  6.50216e-06
 Reference value :  6.50263e-06
 Reference value :  6.50317e-06
 Reference value :  6.50375e-06
 Reference value :  6.50440e-06
 Reference value :  6.50511e-06
 Reference value :  6.50603e-06
 Reference value :  6.50708e-06
 Reference value :  6.50797e-06
 Reference value :  6.50891e-06
 Reference value :  6.50989e-06
 Reference value :  6.51094e-06
 Reference value :  6.51417e-06
 Reference value :  6.51743e-06
 Reference value :  6.52277e-06
 Reference value :  6.54999e-06
 Reference value :  6.58610e-06
 Reference value :  6.65831e-06
 Reference value :  6.75010e-06
 Reference value :  6.75011e-06
 Reference value :  6.75013e-06
 Reference value :  6.75017e-06
 Reference value :  6.75020e-06
 Reference value :  6.75021e-06
 Reference value :  6.75022e-06
 Reference value :  6.75025e-06
 Reference value :  6.75031e-06
 Reference value :  6.75038e-06
 Reference value :  6.75051e-06
 Reference value :  6.75068e-06
 Reference value :  6.75092e-06
 Reference value :  6.75132e-06
 Reference value :  6.75176e-06
 Reference value :  6.75224e-06
 Reference value :  6.75289e-06
 Reference value :  6.75377e-06
 Reference value :  6.75433e-06
 Reference value :  6.75497e-06
 Reference value :  6.75565e-06
 Reference value :  6.75635e-06
 Reference value :  6.75717e-06
 Reference value :  6.75813e-06
 Reference value :  6.75927e-06
 Reference value :  6.76031e-06
 Reference value :  6.76189e-06
 Reference value :  6.76361e-06
 Reference value :  6.77255e-06
 Reference value :  6.79762e-06
 Reference value :  6.82399e-06
 Reference value :  6.86992e-06
 Reference value :  6.94906e-06
 Reference value :  7.00000e-06
 Reference value :  7.00001e-06
 Reference value :  7.00007e-06
 Reference value :  7.00010e-06
 Reference value :  7.00011e-06
 Reference value :  7.00015e-06
 Reference value :  7.00034e-06
 Reference value :  7.00095e-06
 Reference value :  7.00158e-06
 Reference value :  7.00216e-06
 Reference value :  7.00265e-06
 Reference value :  7.00321e-06
 Reference value :  7.00378e-06
 Reference value :  7.00443e-06
 Reference value :  7.00494e-06
 Reference value :  7.00552e-06
 Reference value :  7.00605e-06
 Reference value :  7.00665e-06
 Reference value :  7.00835e-06
 Reference value :  7.00962e-06
 Reference value :  7.01053e-06
 Reference value :  7.01153e-06
 Reference value :  7.01256e-06
 Reference value :  7.01367e-06
 Reference value :  7.01576e-06
 Reference value :  7.01689e-06
 Reference value :  7.01800e-06
 Reference value :  7.02071e-06
 Reference value :  7.02265e-06
 Reference value :  7.02575e-06
 Reference value :  7.03398e-06
 Reference value :  7.05517e-06
 Reference value :  7.13497e-06
 Reference value :  7.25010e-06
 Reference value :  7.25013e-06
 Reference value :  7.25020e-06
 Reference value :  7.25022e-06
 Reference value :  7.25025e-06
 Reference value :  7.25032e-06
 Reference value :  7.25038e-06
 Reference value :  7.25052e-06
 Reference value :  7.25067e-06
 Reference value :  7.25092e-06
 Reference value :  7.25129e-06
 Reference value :  7.25175e-06
 Reference value :  7.25221e-06
 Reference value :  7.25286e-06
 Reference value :  7.25372e-06
 Reference value :  7.25428e-06
 Reference value :  7.25491e-06
 Reference value :  7.25568e-06
 Reference value :  7.25655e-06
 Reference value :  7.25742e-06
 Reference value :  7.25901e-06
 Reference value :  7.26119e-06
 Reference value :  7.26501e-06
 Reference value :  7.27229e-06
 Reference value :  7.28367e-06
 Reference value :  7.30548e-06
 Reference value :  7.34247e-06
 Reference value :  7.40831e-06
 Reference value :  7.50000e-06
 Reference value :  7.50001e-06
 Reference value :  7.50003e-06
 Reference value :  7.50007e-06
 Reference value :  7.50010e-06
 Reference value :  7.50011e-06
 Reference value :  7.50012e-06
 Reference value :  7.50015e-06
 Reference value :  7.50022e-06
 Reference value :  7.50034e-06
 Reference value :  7.50059e-06
 Reference value :  7.50095e-06
 Reference value :  7.50158e-06
 Reference value :  7.50216e-06
 Reference value :  7.50263e-06
 Reference value :  7.50317e-06
 Reference value :  7.50376e-06
 Reference value :  7.50441e-06
 Reference value :  7.50511e-06
 Reference value :  7.50602e-06
 Reference value :  7.50708e-06
 Reference value :  7.50796e-06
 Reference value :  7.50891e-06
 Reference value :  7.50989e-06
 Reference value :  7.51093e-06
 Reference value :  7.51253e-06
 Reference value :  7.51415e-06
 Reference value :  7.52267e-06
 Reference value :  7.53168e-06
 Reference value :  7.58495e-06
 Reference value :  7.65597e-06
 Reference value :  7.75010e-06
 Reference value :  7.75011e-06
 Reference value :  7.75013e-06
 Reference value :  7.75017e-06
 Reference value :  7.75020e-06
 Reference value :  7.75021e-06
 Reference value :  7.75022e-06
 Reference value :  7.75025e-06
 Reference value :  7.75031e-06
 Reference value :  7.75038e-06
 Reference value :  7.75051e-06
 Reference value :  7.75068e-06
 Reference value :  7.75092e-06
 Reference value :  7.75132e-06
 Reference value :  7.75176e-06
 Reference value :  7.75224e-06
 Reference value :  7.75289e-06
 Reference value :  7.75377e-06
 Reference value :  7.75433e-06
 Reference value :  7.75497e-06
 Reference value :  7.75565e-06
 Reference value :  7.75635e-06
 Reference value :  7.75717e-06
 Reference value :  7.75813e-06
 Reference value :  7.75927e-06
 Reference value :  7.76031e-06
 Reference value :  7.76189e-06
 Reference value :  7.76680e-06
 Reference value :  7.78125e-06
 Reference value :  7.79769e-06
 Reference value :  7.82416e-06
 Reference value :  7.87027e-06
 Reference value :  7.94979e-06
 Reference value :  8.00001e-06
 Reference value :  8.00007e-06
 Reference value :  8.00010e-06
 Reference value :  8.00011e-06
 Reference value :  8.00012e-06
 Reference value :  8.00015e-06
 Reference value :  8.00022e-06
 Reference value :  8.00034e-06
 Reference value :  8.00059e-06
 Reference value :  8.00095e-06
 Reference value :  8.00158e-06
 Reference value :  8.00216e-06
 Reference value :  8.00265e-06
 Reference value :  8.00321e-06
 Reference value :  8.00377e-06
 Reference value :  8.00443e-06
 Reference value :  8.00494e-06
 Reference value :  8.00552e-06
 Reference value :  8.00605e-06
 Reference value :  8.00664e-06
 Reference value :  8.00752e-06
 Reference value :  8.00834e-06
 Reference value :  8.00923e-06
 Reference value :  8.01011e-06
 Reference value :  8.01112e-06
 Reference value :  8.01225e-06
 Reference value :  8.01337e-06
 Reference value :  8.01560e-06
 Reference value :  8.01773e-06
 Reference value :  8.02001e-06
 Reference value :  8.02230e-06
 Reference value :  8.02574e-06
 Reference value :  8.02978e-06
 Reference value :  8.03246e-06
 Reference value :  8.03551e-06
 Reference value :  8.03978e-06
 Reference value :  8.04473e-06
 Reference value :  8.05344e-06
 Reference value :  8.06065e-06
 Reference value :  8.06935e-06
 Reference value :  8.08578e-06
 Reference value :  8.11248e-06
 Reference value :  8.15422e-06
 Reference value :  8.25010e-06
 Reference value :  8.25011e-06
 Reference value :  8.25017e-06
 Reference value :  8.25020e-06
 Reference value :  8.25021e-06
 Reference value :  8.25022e-06
 Reference value :  8.25026e-06
 Reference value :  8.25032e-06
 Reference value :  8.25044e-06
 Reference value :  8.25057e-06
 Reference value :  8.25076e-06
 Reference value :  8.25114e-06
 Reference value :  8.25154e-06
 Reference value :  8.25202e-06
 Reference value :  8.25258e-06
 Reference value :  8.25325e-06
 Reference value :  8.25421e-06
 Reference value :  8.25533e-06
 Reference value :  8.25638e-06
 Reference value :  8.25735e-06
 Reference value :  8.25886e-06
 Reference value :  8.26049e-06
 Reference value :  8.26355e-06
 Reference value :  8.26961e-06
 Reference value :  8.28173e-06
 Reference value :  8.30596e-06
 Reference value :  8.35443e-06
 Reference value :  8.45136e-06
 Reference value :  8.50000e-06
No. of Data Rows : 1261
ngspice-44 done
