
Note: Compatibility modes selected: hs a


Circuit: ** sch_path: /home/audrey/cace/sar-adc-using-sky130-pdk/runs/run_2025-08-29_19-31-03/parameters/power/run_3/power_consumption.sch

option SCALE: Scale is set to 1e-06 for instance and model parameters
option SCALE: Scale is set to 1e-06 for instance and model parameters
option SCALE: Scale is set to 1e-06 for instance and model parameters
option SCALE: Scale is set to 1e-06 for instance and model parameters
Doing analysis at TEMP = 27.000000 and TNOM = 27.000000

Using KLU as Direct Linear Solver
Operating point simulation skipped by 'uic',
  now using transient initial conditions.
 Reference value :  5.00000e-12
 Reference value :  5.13071e-12
 Reference value :  5.39213e-12
 Reference value :  5.91498e-12
 Reference value :  6.96067e-12
 Reference value :  8.81095e-12
 Reference value :  1.18196e-11
 Reference value :  1.72722e-11
 Reference value :  2.79086e-11
 Reference value :  4.11415e-11
 Reference value :  6.56246e-11
 Reference value :  9.47562e-11
 Reference value :  1.46369e-10
 Reference value :  2.06820e-10
 Reference value :  3.27721e-10
 Reference value :  4.63642e-10
 Reference value :  5.00000e-10
 Reference value :  5.04490e-10
 Reference value :  5.13470e-10
 Reference value :  5.31429e-10
 Reference value :  5.67348e-10
 Reference value :  6.39185e-10
 Reference value :  7.82860e-10
 Reference value :  1.07021e-09
 Reference value :  1.64491e-09
 Reference value :  2.79431e-09
 Reference value :  4.78554e-09
 Reference value :  6.83440e-09
 Reference value :  1.09321e-08
 Reference value :  1.81932e-08
 Reference value :  2.67206e-08
 Reference value :  4.03191e-08
 Reference value :  5.72882e-08
 Reference value :  9.07795e-08
 Reference value :  1.33085e-07
 Reference value :  2.17695e-07
 Reference value :  3.59830e-07
 Reference value :  5.00000e-07
 Reference value :  5.22910e-07
 Reference value :  5.68729e-07
 Reference value :  6.60368e-07
 Reference value :  8.43645e-07
 Reference value :  1.00050e-06
 Reference value :  1.00055e-06
 Reference value :  1.00065e-06
 Reference value :  1.00085e-06
 Reference value :  1.00100e-06
 Reference value :  1.00103e-06
 Reference value :  1.00110e-06
 Reference value :  1.00124e-06
 Reference value :  1.00152e-06
 Reference value :  1.00207e-06
 Reference value :  1.00267e-06
 Reference value :  1.00367e-06
 Reference value :  1.00513e-06
 Reference value :  1.00780e-06
 Reference value :  1.01202e-06
 Reference value :  1.02046e-06
 Reference value :  1.02909e-06
 Reference value :  1.04008e-06
 Reference value :  1.05224e-06
 Reference value :  1.06497e-06
 Reference value :  1.08082e-06
 Reference value :  1.09749e-06
 Reference value :  1.11763e-06
 Reference value :  1.12131e-06
 Reference value :  1.12867e-06
 Reference value :  1.13722e-06
 Reference value :  1.14627e-06
 Reference value :  1.15337e-06
 Reference value :  1.16085e-06
 Reference value :  1.16891e-06
 Reference value :  1.17736e-06
 Reference value :  1.18388e-06
 Reference value :  1.19085e-06
 Reference value :  1.19794e-06
 Reference value :  1.20434e-06
 Reference value :  1.21032e-06
 Reference value :  1.21657e-06
 Reference value :  1.22426e-06
 Reference value :  1.23045e-06
 Reference value :  1.23705e-06
 Reference value :  1.24565e-06
 Reference value :  1.25143e-06
 Reference value :  1.25802e-06
 Reference value :  1.26270e-06
 Reference value :  1.26823e-06
 Reference value :  1.27395e-06
 Reference value :  1.28227e-06
 Reference value :  1.29283e-06
 Reference value :  1.30818e-06
 Reference value :  1.33118e-06
 Reference value :  1.35220e-06
 Reference value :  1.36696e-06
 Reference value :  1.38159e-06
 Reference value :  1.39509e-06
 Reference value :  1.40504e-06
 Reference value :  1.41564e-06
 Reference value :  1.42605e-06
 Reference value :  1.43717e-06
 Reference value :  1.45940e-06
 Reference value :  1.48943e-06
 Reference value :  1.54025e-06
 Reference value :  1.62538e-06
 Reference value :  1.62906e-06
 Reference value :  1.63643e-06
 Reference value :  1.65116e-06
 Reference value :  1.68063e-06
 Reference value :  1.73955e-06
 Reference value :  1.81792e-06
 Reference value :  1.88236e-06
 Reference value :  1.94936e-06
 Reference value :  2.00000e-06
 Reference value :  2.00005e-06
 Reference value :  2.00015e-06
 Reference value :  2.00035e-06
 Reference value :  2.00050e-06
 Reference value :  2.00051e-06
 Reference value :  2.00053e-06
 Reference value :  2.00056e-06
 Reference value :  2.00064e-06
 Reference value :  2.00079e-06
 Reference value :  2.00108e-06
 Reference value :  2.00167e-06
 Reference value :  2.00285e-06
 Reference value :  2.00414e-06
 Reference value :  2.00614e-06
 Reference value :  2.00931e-06
 Reference value :  2.01337e-06
 Reference value :  2.01760e-06
 Reference value :  2.02414e-06
 Reference value :  2.03583e-06
 Reference value :  2.05486e-06
 Reference value :  2.05802e-06
 Reference value :  2.06433e-06
 Reference value :  2.07697e-06
 Reference value :  2.09664e-06
 Reference value :  2.11546e-06
 Reference value :  2.14250e-06
 Reference value :  2.17277e-06
 Reference value :  2.20633e-06
 Reference value :  2.27344e-06
 Reference value :  2.38499e-06
 Reference value :  2.57078e-06
 Reference value :  2.92768e-06
 Reference value :  3.00050e-06
 Reference value :  3.00055e-06
 Reference value :  3.00065e-06
 Reference value :  3.00085e-06
 Reference value :  3.00100e-06
 Reference value :  3.00103e-06
 Reference value :  3.00109e-06
 Reference value :  3.00120e-06
 Reference value :  3.00143e-06
 Reference value :  3.00182e-06
 Reference value :  3.00218e-06
 Reference value :  3.00277e-06
 Reference value :  3.00354e-06
 Reference value :  3.00508e-06
 Reference value :  3.00816e-06
 Reference value :  3.01432e-06
 Reference value :  3.02664e-06
 Reference value :  3.05128e-06
 Reference value :  3.08141e-06
 Reference value :  3.13040e-06
 Reference value :  3.18577e-06
 Reference value :  3.27242e-06
 Reference value :  3.39129e-06
 Reference value :  3.62905e-06
 Reference value :  3.63822e-06
 Reference value :  3.65656e-06
 Reference value :  3.69325e-06
 Reference value :  3.76662e-06
 Reference value :  3.85453e-06
 Reference value :  3.92517e-06
 Reference value :  3.99830e-06
 Reference value :  4.00000e-06
 Reference value :  4.00005e-06
 Reference value :  4.00015e-06
 Reference value :  4.00035e-06
 Reference value :  4.00050e-06
 Reference value :  4.00051e-06
 Reference value :  4.00053e-06
 Reference value :  4.00056e-06
 Reference value :  4.00063e-06
 Reference value :  4.00078e-06
 Reference value :  4.00106e-06
 Reference value :  4.00163e-06
 Reference value :  4.00277e-06
 Reference value :  4.00408e-06
 Reference value :  4.00607e-06
 Reference value :  4.00914e-06
 Reference value :  4.01278e-06
 Reference value :  4.01767e-06
 Reference value :  4.02312e-06
 Reference value :  4.03402e-06
 Reference value :  4.05582e-06
 Reference value :  4.09942e-06
 Reference value :  4.17287e-06
 Reference value :  4.23898e-06
 Reference value :  4.30803e-06
 Reference value :  4.38646e-06
 Reference value :  4.45411e-06
 Reference value :  4.50412e-06
 Reference value :  4.55569e-06
 Reference value :  4.61290e-06
 Reference value :  4.67257e-06
 Reference value :  4.76371e-06
 Reference value :  4.86672e-06
 Reference value :  5.00050e-06
 Reference value :  5.00055e-06
 Reference value :  5.00065e-06
 Reference value :  5.00085e-06
 Reference value :  5.00100e-06
 Reference value :  5.00103e-06
 Reference value :  5.00109e-06
 Reference value :  5.00121e-06
 Reference value :  5.00146e-06
 Reference value :  5.00180e-06
 Reference value :  5.00217e-06
 Reference value :  5.00275e-06
 Reference value :  5.00358e-06
 Reference value :  5.00524e-06
 Reference value :  5.00855e-06
 Reference value :  5.01516e-06
 Reference value :  5.02840e-06
 Reference value :  5.05306e-06
 Reference value :  5.08302e-06
 Reference value :  5.12879e-06
 Reference value :  5.17746e-06
 Reference value :  5.25292e-06
 Reference value :  5.38420e-06
 Reference value :  5.57670e-06
 Reference value :  5.77774e-06
 Reference value :  5.91706e-06
 Reference value :  6.00000e-06
 Reference value :  6.00005e-06
 Reference value :  6.00015e-06
 Reference value :  6.00035e-06
 Reference value :  6.00050e-06
 Reference value :  6.00051e-06
 Reference value :  6.00054e-06
 Reference value :  6.00059e-06
 Reference value :  6.00069e-06
 Reference value :  6.00088e-06
 Reference value :  6.00128e-06
 Reference value :  6.00208e-06
 Reference value :  6.00367e-06
 Reference value :  6.00664e-06
 Reference value :  6.00958e-06
 Reference value :  6.01504e-06
 Reference value :  6.02096e-06
 Reference value :  6.03153e-06
 Reference value :  6.04212e-06
 Reference value :  6.05817e-06
 Reference value :  6.09028e-06
 Reference value :  6.14120e-06
 Reference value :  6.24303e-06
 Reference value :  6.40570e-06
 Reference value :  6.72767e-06
 Reference value :  7.00050e-06
 Reference value :  7.00055e-06
 Reference value :  7.00065e-06
 Reference value :  7.00085e-06
 Reference value :  7.00100e-06
 Reference value :  7.00103e-06
 Reference value :  7.00109e-06
 Reference value :  7.00121e-06
 Reference value :  7.00144e-06
 Reference value :  7.00175e-06
 Reference value :  7.00218e-06
 Reference value :  7.00277e-06
 Reference value :  7.00389e-06
 Reference value :  7.00614e-06
 Reference value :  7.01062e-06
 Reference value :  7.01960e-06
 Reference value :  7.03755e-06
 Reference value :  7.07344e-06
 Reference value :  7.14524e-06
 Reference value :  7.24354e-06
 Reference value :  7.39759e-06
 Reference value :  7.57713e-06
 Reference value :  7.74766e-06
 Reference value :  7.87317e-06
 Reference value :  8.00000e-06
 Reference value :  8.00005e-06
 Reference value :  8.00015e-06
 Reference value :  8.00035e-06
 Reference value :  8.00050e-06
 Reference value :  8.00051e-06
 Reference value :  8.00054e-06
 Reference value :  8.00059e-06
 Reference value :  8.00069e-06
 Reference value :  8.00089e-06
 Reference value :  8.00129e-06
 Reference value :  8.00210e-06
 Reference value :  8.00371e-06
 Reference value :  8.00693e-06
 Reference value :  8.01016e-06
 Reference value :  8.01657e-06
 Reference value :  8.02312e-06
 Reference value :  8.03477e-06
 Reference value :  8.05000e-06
 Reference value :  8.06566e-06
 Reference value :  8.09697e-06
 Reference value :  8.15960e-06
 Reference value :  8.28486e-06
 Reference value :  8.49569e-06
 Reference value :  8.88059e-06
 Reference value :  9.00050e-06
 Reference value :  9.00055e-06
 Reference value :  9.00065e-06
 Reference value :  9.00085e-06
 Reference value :  9.00100e-06
 Reference value :  9.00103e-06
 Reference value :  9.00109e-06
 Reference value :  9.00121e-06
 Reference value :  9.00144e-06
 Reference value :  9.00175e-06
 Reference value :  9.00218e-06
 Reference value :  9.00277e-06
 Reference value :  9.00386e-06
 Reference value :  9.00605e-06
 Reference value :  9.01043e-06
 Reference value :  9.01919e-06
 Reference value :  9.03671e-06
 Reference value :  9.07175e-06
 Reference value :  9.14183e-06
 Reference value :  9.22155e-06
 Reference value :  9.28731e-06
 Reference value :  9.33753e-06
 Reference value :  9.38386e-06
 Reference value :  9.43316e-06
 Reference value :  9.50178e-06
 Reference value :  9.58497e-06
 Reference value :  9.70247e-06
 Reference value :  9.88360e-06
 Reference value :  1.00000e-05
 Reference value :  1.00000e-05
 Reference value :  1.00001e-05
 Reference value :  1.00003e-05
 Reference value :  1.00005e-05
 Reference value :  1.00005e-05
 Reference value :  1.00005e-05
 Reference value :  1.00006e-05
 Reference value :  1.00006e-05
 Reference value :  1.00008e-05
 Reference value :  1.00010e-05
 Reference value :  1.00016e-05
 Reference value :  1.00027e-05
 Reference value :  1.00048e-05
 Reference value :  1.00071e-05
 Reference value :  1.00107e-05
 Reference value :  1.00158e-05
 Reference value :  1.00238e-05
 Reference value :  1.00330e-05
 Reference value :  1.00439e-05
 Reference value :  1.00658e-05
 Reference value :  1.00981e-05
 Reference value :  1.01606e-05
 Reference value :  1.02599e-05
 Reference value :  1.04025e-05
 Reference value :  1.06182e-05
 Reference value :  1.09628e-05
 Reference value :  1.10005e-05
 Reference value :  1.10005e-05
 Reference value :  1.10006e-05
 Reference value :  1.10008e-05
 Reference value :  1.10010e-05
 Reference value :  1.10010e-05
 Reference value :  1.10011e-05
 Reference value :  1.10012e-05
 Reference value :  1.10014e-05
 Reference value :  1.10018e-05
 Reference value :  1.10022e-05
 Reference value :  1.10028e-05
 Reference value :  1.10039e-05
 Reference value :  1.10061e-05
 Reference value :  1.10105e-05
 Reference value :  1.10193e-05
 Reference value :  1.10369e-05
 Reference value :  1.10721e-05
 Reference value :  1.11227e-05
 Reference value :  1.11893e-05
 Reference value :  1.12824e-05
 Reference value :  1.14251e-05
 Reference value :  1.16196e-05
 Reference value :  1.18299e-05
 Reference value :  1.20000e-05
 Reference value :  1.20000e-05
 Reference value :  1.20001e-05
 Reference value :  1.20003e-05
 Reference value :  1.20005e-05
 Reference value :  1.20005e-05
 Reference value :  1.20005e-05
 Reference value :  1.20006e-05
 Reference value :  1.20007e-05
 Reference value :  1.20009e-05
 Reference value :  1.20013e-05
 Reference value :  1.20021e-05
 Reference value :  1.20037e-05
 Reference value :  1.20065e-05
 Reference value :  1.20095e-05
 Reference value :  1.20149e-05
 Reference value :  1.20209e-05
 Reference value :  1.20311e-05
 Reference value :  1.20418e-05
 Reference value :  1.20573e-05
 Reference value :  1.20883e-05
 Reference value :  1.21386e-05
 Reference value :  1.22391e-05
 Reference value :  1.23775e-05
 Reference value :  1.25418e-05
 Reference value :  1.27583e-05
 Reference value :  1.30005e-05
 Reference value :  1.30006e-05
 Reference value :  1.30007e-05
 Reference value :  1.30009e-05
 Reference value :  1.30010e-05
 Reference value :  1.30010e-05
 Reference value :  1.30011e-05
 Reference value :  1.30012e-05
 Reference value :  1.30014e-05
 Reference value :  1.30018e-05
 Reference value :  1.30022e-05
 Reference value :  1.30028e-05
 Reference value :  1.30038e-05
 Reference value :  1.30060e-05
 Reference value :  1.30103e-05
 Reference value :  1.30189e-05
 Reference value :  1.30361e-05
 Reference value :  1.30704e-05
 Reference value :  1.31391e-05
 Reference value :  1.32433e-05
 Reference value :  1.32457e-05
 Reference value :  1.32504e-05
 Reference value :  1.32599e-05
 Reference value :  1.32788e-05
 Reference value :  1.33167e-05
 Reference value :  1.33925e-05
 Reference value :  1.34115e-05
 Reference value :  1.34494e-05
 Reference value :  1.34589e-05
 Reference value :  1.34778e-05
 Reference value :  1.35157e-05
 Reference value :  1.35477e-05
 Reference value :  1.35726e-05
 Reference value :  1.35967e-05
 Reference value :  1.36204e-05
 Reference value :  1.36426e-05
 Reference value :  1.36669e-05
 Reference value :  1.36945e-05
 Reference value :  1.37262e-05
 Reference value :  1.37657e-05
 Reference value :  1.38152e-05
 Reference value :  1.38797e-05
 Reference value :  1.39654e-05
 Reference value :  1.40000e-05
 Reference value :  1.40000e-05
 Reference value :  1.40002e-05
 Reference value :  1.40004e-05
 Reference value :  1.40005e-05
 Reference value :  1.40005e-05
 Reference value :  1.40005e-05
 Reference value :  1.40006e-05
 Reference value :  1.40007e-05
 Reference value :  1.40009e-05
 Reference value :  1.40013e-05
 Reference value :  1.40021e-05
 Reference value :  1.40037e-05
 Reference value :  1.40069e-05
 Reference value :  1.40101e-05
 Reference value :  1.40160e-05
 Reference value :  1.40226e-05
 Reference value :  1.40334e-05
 Reference value :  1.40457e-05
 Reference value :  1.40618e-05
 Reference value :  1.40942e-05
 Reference value :  1.41498e-05
 Reference value :  1.42563e-05
 Reference value :  1.44084e-05
 Reference value :  1.45952e-05
 Reference value :  1.48772e-05
 Reference value :  1.50005e-05
 Reference value :  1.50005e-05
 Reference value :  1.50007e-05
 Reference value :  1.50009e-05
 Reference value :  1.50010e-05
 Reference value :  1.50010e-05
 Reference value :  1.50011e-05
 Reference value :  1.50012e-05
 Reference value :  1.50014e-05
 Reference value :  1.50018e-05
 Reference value :  1.50022e-05
 Reference value :  1.50028e-05
 Reference value :  1.50039e-05
 Reference value :  1.50060e-05
 Reference value :  1.50103e-05
 Reference value :  1.50189e-05
 Reference value :  1.50362e-05
 Reference value :  1.50707e-05
 Reference value :  1.51397e-05
 Reference value :  1.52396e-05
 Reference value :  1.53870e-05
 Reference value :  1.55271e-05
 Reference value :  1.56265e-05
 Reference value :  1.57204e-05
 Reference value :  1.58233e-05
 Reference value :  1.59483e-05
 Reference value :  1.60000e-05
 Reference value :  1.60000e-05
 Reference value :  1.60001e-05
 Reference value :  1.60004e-05
 Reference value :  1.60005e-05
 Reference value :  1.60005e-05
 Reference value :  1.60005e-05
 Reference value :  1.60006e-05
 Reference value :  1.60007e-05
 Reference value :  1.60008e-05
 Reference value :  1.60012e-05
 Reference value :  1.60018e-05
 Reference value :  1.60032e-05
 Reference value :  1.60059e-05
 Reference value :  1.60113e-05
 Reference value :  1.60221e-05
 Reference value :  1.60437e-05
 Reference value :  1.60739e-05
 Reference value :  1.61074e-05
 Reference value :  1.61743e-05
 Reference value :  1.62914e-05
 Reference value :  1.64327e-05
 Reference value :  1.65616e-05
 Reference value :  1.68193e-05
 Reference value :  1.70005e-05
 Reference value :  1.70006e-05
 Reference value :  1.70007e-05
 Reference value :  1.70009e-05
 Reference value :  1.70010e-05
 Reference value :  1.70010e-05
 Reference value :  1.70011e-05
 Reference value :  1.70012e-05
 Reference value :  1.70014e-05
 Reference value :  1.70018e-05
 Reference value :  1.70022e-05
 Reference value :  1.70028e-05
 Reference value :  1.70038e-05
 Reference value :  1.70060e-05
 Reference value :  1.70102e-05
 Reference value :  1.70187e-05
 Reference value :  1.70357e-05
 Reference value :  1.70697e-05
 Reference value :  1.71378e-05
 Reference value :  1.72447e-05
 Reference value :  1.73507e-05
 Reference value :  1.74282e-05
 Reference value :  1.75118e-05
 Reference value :  1.75951e-05
 Reference value :  1.76808e-05
 Reference value :  1.78075e-05
 Reference value :  1.79405e-05
 Reference value :  1.80000e-05
 Reference value :  1.80001e-05
 Reference value :  1.80002e-05
 Reference value :  1.80004e-05
 Reference value :  1.80005e-05
 Reference value :  1.80005e-05
 Reference value :  1.80005e-05
 Reference value :  1.80006e-05
 Reference value :  1.80007e-05
 Reference value :  1.80008e-05
 Reference value :  1.80012e-05
 Reference value :  1.80018e-05
 Reference value :  1.80032e-05
 Reference value :  1.80059e-05
 Reference value :  1.80113e-05
 Reference value :  1.80222e-05
 Reference value :  1.80438e-05
 Reference value :  1.80769e-05
 Reference value :  1.81112e-05
 Reference value :  1.81796e-05
 Reference value :  1.82974e-05
 Reference value :  1.84202e-05
 Reference value :  1.85658e-05
 Reference value :  1.87958e-05
 Reference value :  1.90005e-05
 Reference value :  1.90006e-05
 Reference value :  1.90007e-05
 Reference value :  1.90009e-05
 Reference value :  1.90010e-05
 Reference value :  1.90010e-05
 Reference value :  1.90011e-05
 Reference value :  1.90012e-05
 Reference value :  1.90014e-05
 Reference value :  1.90018e-05
 Reference value :  1.90022e-05
 Reference value :  1.90028e-05
 Reference value :  1.90038e-05
 Reference value :  1.90060e-05
 Reference value :  1.90102e-05
 Reference value :  1.90187e-05
 Reference value :  1.90357e-05
 Reference value :  1.90697e-05
 Reference value :  1.91378e-05
 Reference value :  1.92059e-05
 Reference value :  1.92495e-05
 Reference value :  1.92918e-05
 Reference value :  1.93313e-05
 Reference value :  1.93765e-05
 Reference value :  1.94327e-05
 Reference value :  1.94909e-05
 Reference value :  1.95514e-05
 Reference value :  1.96448e-05
 Reference value :  1.97583e-05
 Reference value :  1.99490e-05
 Reference value :  2.00000e-05
 Reference value :  2.00001e-05
 Reference value :  2.00002e-05
 Reference value :  2.00004e-05
 Reference value :  2.00005e-05
 Reference value :  2.00005e-05
 Reference value :  2.00005e-05
 Reference value :  2.00006e-05
 Reference value :  2.00007e-05
 Reference value :  2.00008e-05
 Reference value :  2.00012e-05
 Reference value :  2.00018e-05
 Reference value :  2.00032e-05
 Reference value :  2.00059e-05
 Reference value :  2.00113e-05
 Reference value :  2.00222e-05
 Reference value :  2.00439e-05
 Reference value :  2.00765e-05
 Reference value :  2.01108e-05
 Reference value :  2.01793e-05
 Reference value :  2.02973e-05
 Reference value :  2.04214e-05
 Reference value :  2.05608e-05
 Reference value :  2.07977e-05
 Reference value :  2.10005e-05
 Reference value :  2.10005e-05
 Reference value :  2.10006e-05
 Reference value :  2.10008e-05
 Reference value :  2.10010e-05
 Reference value :  2.10010e-05
 Reference value :  2.10011e-05
 Reference value :  2.10012e-05
 Reference value :  2.10014e-05
 Reference value :  2.10018e-05
 Reference value :  2.10022e-05
 Reference value :  2.10028e-05
 Reference value :  2.10038e-05
 Reference value :  2.10060e-05
 Reference value :  2.10102e-05
 Reference value :  2.10187e-05
 Reference value :  2.10357e-05
 Reference value :  2.10697e-05
 Reference value :  2.11378e-05
 Reference value :  2.12494e-05
 Reference value :  2.14050e-05
 Reference value :  2.16550e-05
 Reference value :  2.20000e-05
 Reference value :  2.20000e-05
 Reference value :  2.20001e-05
 Reference value :  2.20004e-05
 Reference value :  2.20005e-05
 Reference value :  2.20005e-05
 Reference value :  2.20005e-05
 Reference value :  2.20006e-05
 Reference value :  2.20007e-05
 Reference value :  2.20008e-05
 Reference value :  2.20012e-05
 Reference value :  2.20018e-05
 Reference value :  2.20032e-05
 Reference value :  2.20059e-05
 Reference value :  2.20113e-05
 Reference value :  2.20222e-05
 Reference value :  2.20439e-05
 Reference value :  2.20766e-05
 Reference value :  2.21108e-05
 Reference value :  2.21792e-05
 Reference value :  2.22973e-05
 Reference value :  2.24214e-05
 Reference value :  2.25611e-05
 Reference value :  2.27974e-05
 Reference value :  2.30005e-05
 Reference value :  2.30005e-05
 Reference value :  2.30006e-05
 Reference value :  2.30008e-05
 Reference value :  2.30010e-05
 Reference value :  2.30010e-05
 Reference value :  2.30011e-05
 Reference value :  2.30012e-05
 Reference value :  2.30014e-05
 Reference value :  2.30018e-05
 Reference value :  2.30022e-05
 Reference value :  2.30028e-05
 Reference value :  2.30038e-05
 Reference value :  2.30060e-05
 Reference value :  2.30102e-05
 Reference value :  2.30187e-05
 Reference value :  2.30357e-05
 Reference value :  2.30697e-05
 Reference value :  2.31378e-05
 Reference value :  2.32511e-05
 Reference value :  2.34078e-05
 Reference value :  2.36613e-05
 Reference value :  2.40000e-05
 Reference value :  2.40001e-05
 Reference value :  2.40002e-05
 Reference value :  2.40004e-05
 Reference value :  2.40005e-05
 Reference value :  2.40005e-05
 Reference value :  2.40005e-05
 Reference value :  2.40006e-05
 Reference value :  2.40007e-05
 Reference value :  2.40008e-05
 Reference value :  2.40012e-05
 Reference value :  2.40018e-05
 Reference value :  2.40032e-05
 Reference value :  2.40059e-05
 Reference value :  2.40113e-05
 Reference value :  2.40222e-05
 Reference value :  2.40439e-05
 Reference value :  2.40766e-05
 Reference value :  2.41108e-05
 Reference value :  2.41792e-05
 Reference value :  2.42973e-05
 Reference value :  2.44214e-05
 Reference value :  2.45616e-05
 Reference value :  2.47968e-05
 Reference value :  2.50005e-05
 Reference value :  2.50005e-05
 Reference value :  2.50006e-05
 Reference value :  2.50008e-05
 Reference value :  2.50010e-05
 Reference value :  2.50010e-05
 Reference value :  2.50011e-05
 Reference value :  2.50012e-05
 Reference value :  2.50014e-05
 Reference value :  2.50018e-05
 Reference value :  2.50022e-05
 Reference value :  2.50028e-05
 Reference value :  2.50038e-05
 Reference value :  2.50060e-05
 Reference value :  2.50102e-05
 Reference value :  2.50187e-05
 Reference value :  2.50357e-05
 Reference value :  2.50698e-05
 Reference value :  2.51378e-05
 Reference value :  2.52520e-05
 Reference value :  2.54094e-05
 Reference value :  2.56647e-05
 Reference value :  2.60000e-05
 Reference value :  2.60001e-05
 Reference value :  2.60002e-05
 Reference value :  2.60004e-05
 Reference value :  2.60005e-05
 Reference value :  2.60005e-05
 Reference value :  2.60005e-05
 Reference value :  2.60006e-05
 Reference value :  2.60007e-05
 Reference value :  2.60008e-05
 Reference value :  2.60012e-05
 Reference value :  2.60018e-05
 Reference value :  2.60032e-05
 Reference value :  2.60059e-05
 Reference value :  2.60113e-05
 Reference value :  2.60222e-05
 Reference value :  2.60439e-05
 Reference value :  2.60767e-05
 Reference value :  2.61109e-05
 Reference value :  2.61793e-05
 Reference value :  2.62974e-05
 Reference value :  2.64214e-05
 Reference value :  2.65619e-05
 Reference value :  2.67965e-05
 Reference value :  2.70005e-05
 Reference value :  2.70006e-05
 Reference value :  2.70007e-05
 Reference value :  2.70009e-05
 Reference value :  2.70010e-05
 Reference value :  2.70010e-05
 Reference value :  2.70011e-05
 Reference value :  2.70012e-05
 Reference value :  2.70014e-05
 Reference value :  2.70018e-05
 Reference value :  2.70022e-05
 Reference value :  2.70028e-05
 Reference value :  2.70038e-05
 Reference value :  2.70060e-05
 Reference value :  2.70102e-05
 Reference value :  2.70187e-05
 Reference value :  2.70357e-05
 Reference value :  2.70698e-05
 Reference value :  2.71378e-05
 Reference value :  2.72525e-05
 Reference value :  2.74103e-05
 Reference value :  2.76668e-05
 Reference value :  2.80000e-05
 Reference value :  2.80000e-05
 Reference value :  2.80001e-05
 Reference value :  2.80004e-05
 Reference value :  2.80005e-05
 Reference value :  2.80005e-05
 Reference value :  2.80005e-05
 Reference value :  2.80006e-05
 Reference value :  2.80007e-05
 Reference value :  2.80008e-05
 Reference value :  2.80012e-05
 Reference value :  2.80018e-05
 Reference value :  2.80032e-05
 Reference value :  2.80059e-05
 Reference value :  2.80113e-05
 Reference value :  2.80222e-05
 Reference value :  2.80439e-05
 Reference value :  2.80770e-05
 Reference value :  2.81111e-05
 Reference value :  2.81793e-05
 Reference value :  2.82977e-05
 Reference value :  2.84216e-05
 Reference value :  2.85623e-05
 Reference value :  2.87967e-05
 Reference value :  2.90005e-05
 Reference value :  2.90006e-05
 Reference value :  2.90007e-05
 Reference value :  2.90009e-05
 Reference value :  2.90010e-05
 Reference value :  2.90010e-05
 Reference value :  2.90011e-05
 Reference value :  2.90012e-05
 Reference value :  2.90014e-05
 Reference value :  2.90018e-05
 Reference value :  2.90022e-05
 Reference value :  2.90028e-05
 Reference value :  2.90038e-05
 Reference value :  2.90060e-05
 Reference value :  2.90102e-05
 Reference value :  2.90187e-05
 Reference value :  2.90357e-05
 Reference value :  2.90698e-05
 Reference value :  2.91378e-05
 Reference value :  2.92529e-05
 Reference value :  2.94109e-05
 Reference value :  2.96681e-05
 Reference value :  3.00000e-05
 Reference value :  3.00001e-05
 Reference value :  3.00002e-05
 Reference value :  3.00004e-05
 Reference value :  3.00005e-05
 Reference value :  3.00005e-05
 Reference value :  3.00005e-05
 Reference value :  3.00006e-05
 Reference value :  3.00007e-05
 Reference value :  3.00008e-05
 Reference value :  3.00012e-05
 Reference value :  3.00018e-05
 Reference value :  3.00032e-05
 Reference value :  3.00059e-05
 Reference value :  3.00113e-05
 Reference value :  3.00222e-05
 Reference value :  3.00439e-05
 Reference value :  3.00775e-05
 Reference value :  3.01114e-05
 Reference value :  3.01793e-05
 Reference value :  3.02981e-05
 Reference value :  3.04220e-05
 Reference value :  3.05627e-05
 Reference value :  3.07972e-05
 Reference value :  3.10005e-05
 Reference value :  3.10005e-05
 Reference value :  3.10006e-05
 Reference value :  3.10008e-05
 Reference value :  3.10010e-05
 Reference value :  3.10010e-05
 Reference value :  3.10011e-05
 Reference value :  3.10012e-05
 Reference value :  3.10014e-05
 Reference value :  3.10018e-05
 Reference value :  3.10022e-05
 Reference value :  3.10028e-05
 Reference value :  3.10038e-05
 Reference value :  3.10060e-05
 Reference value :  3.10102e-05
 Reference value :  3.10187e-05
 Reference value :  3.10357e-05
 Reference value :  3.10698e-05
 Reference value :  3.11378e-05
 Reference value :  3.12531e-05
 Reference value :  3.14113e-05
 Reference value :  3.16690e-05
 Reference value :  3.20000e-05
 Reference value :  3.20000e-05
 Reference value :  3.20001e-05
 Reference value :  3.20003e-05
 Reference value :  3.20005e-05
 Reference value :  3.20005e-05
 Reference value :  3.20005e-05
 Reference value :  3.20006e-05
 Reference value :  3.20007e-05
 Reference value :  3.20008e-05
 Reference value :  3.20012e-05
 Reference value :  3.20018e-05
 Reference value :  3.20032e-05
 Reference value :  3.20059e-05
 Reference value :  3.20113e-05
 Reference value :  3.20222e-05
 Reference value :  3.20439e-05
 Reference value :  3.20778e-05
 Reference value :  3.21117e-05
 Reference value :  3.21793e-05
 Reference value :  3.22983e-05
 Reference value :  3.24222e-05
 Reference value :  3.25630e-05
 Reference value :  3.27976e-05
 Reference value :  3.30005e-05
 Reference value :  3.30006e-05
 Reference value :  3.30007e-05
 Reference value :  3.30009e-05
 Reference value :  3.30010e-05
 Reference value :  3.30010e-05
 Reference value :  3.30011e-05
 Reference value :  3.30012e-05
 Reference value :  3.30014e-05
 Reference value :  3.30018e-05
 Reference value :  3.30022e-05
 Reference value :  3.30028e-05
 Reference value :  3.30038e-05
 Reference value :  3.30060e-05
 Reference value :  3.30102e-05
 Reference value :  3.30187e-05
 Reference value :  3.30357e-05
 Reference value :  3.30698e-05
 Reference value :  3.31378e-05
 Reference value :  3.32533e-05
 Reference value :  3.34116e-05
 Reference value :  3.36695e-05
 Reference value :  3.40000e-05
No. of Data Rows : 937
ngspice-44 done
