
Note: Compatibility modes selected: hs a


Circuit: ** sch_path: /home/samantha/cace/sar-adc-using-sky130-pdk/runs/run_2025-09-05_16-28-34/parameters/power/run_06/power_consumption.sch

option SCALE: Scale is set to 1e-06 for instance and model parameters
option SCALE: Scale is set to 1e-06 for instance and model parameters
option SCALE: Scale is set to 1e-06 for instance and model parameters
option SCALE: Scale is set to 1e-06 for instance and model parameters
Doing analysis at TEMP = 27.000000 and TNOM = 27.000000

Using KLU as Direct Linear Solver
 Reference value :  0.00000e+00
 Reference value :  2.00000e-12
 Reference value :  8.00000e-12
 Reference value :  3.20000e-11
 Reference value :  6.40000e-11
 Reference value :  1.00000e-10
 Reference value :  1.19200e-10
 Reference value :  1.44800e-10
 Reference value :  1.96000e-10
 Reference value :  4.37161e-10
 Reference value :  7.14684e-10
 Reference value :  1.04526e-09
 Reference value :  1.44317e-09
 Reference value :  1.79863e-09
 Reference value :  2.23918e-09
 Reference value :  2.63984e-09
 Reference value :  3.02234e-09
 Reference value :  3.48363e-09
 Reference value :  3.97671e-09
 Reference value :  4.51329e-09
 Reference value :  5.02617e-09
 Reference value :  5.57309e-09
 Reference value :  6.38790e-09
 Reference value :  7.16529e-09
 Reference value :  7.99867e-09
 Reference value :  8.94436e-09
 Reference value :  9.86580e-09
 Reference value :  1.10892e-08
 Reference value :  1.22286e-08
 Reference value :  1.30278e-08
 Reference value :  1.37677e-08
 Reference value :  1.47127e-08
 Reference value :  1.56016e-08
 Reference value :  1.68745e-08
 Reference value :  1.84176e-08
 Reference value :  2.02485e-08
 Reference value :  2.19167e-08
 Reference value :  2.38237e-08
 Reference value :  2.47816e-08
 Reference value :  2.57683e-08
 Reference value :  2.80435e-08
 Reference value :  3.20763e-08
 Reference value :  3.47595e-08
 Reference value :  3.76183e-08
 Reference value :  4.11739e-08
 Reference value :  4.48791e-08
 Reference value :  5.14656e-08
 Reference value :  7.29989e-08
 Reference value :  1.31769e-07
 Reference value :  1.97336e-07
 Reference value :  2.50100e-07
 Reference value :  2.50110e-07
 Reference value :  2.50130e-07
 Reference value :  2.50200e-07
 Reference value :  2.50222e-07
 Reference value :  2.50250e-07
 Reference value :  2.50308e-07
 Reference value :  2.50519e-07
 Reference value :  2.50654e-07
 Reference value :  2.50924e-07
 Reference value :  2.51239e-07
 Reference value :  2.51657e-07
 Reference value :  2.52105e-07
 Reference value :  2.52708e-07
 Reference value :  2.53485e-07
 Reference value :  2.54051e-07
 Reference value :  2.55368e-07
 Reference value :  2.56042e-07
 Reference value :  2.56961e-07
 Reference value :  2.58163e-07
 Reference value :  2.59498e-07
 Reference value :  2.65380e-07
 Reference value :  2.72155e-07
 Reference value :  2.83589e-07
 Reference value :  2.98436e-07
 Reference value :  3.15110e-07
 Reference value :  3.28191e-07
 Reference value :  3.38161e-07
 Reference value :  3.45287e-07
 Reference value :  3.52876e-07
 Reference value :  3.60237e-07
 Reference value :  3.79964e-07
 Reference value :  4.18025e-07
 Reference value :  5.00000e-07
 Reference value :  5.00030e-07
 Reference value :  5.00100e-07
 Reference value :  5.00124e-07
 Reference value :  5.00155e-07
 Reference value :  5.00218e-07
 Reference value :  5.00494e-07
 Reference value :  5.01322e-07
 Reference value :  5.01781e-07
 Reference value :  5.02216e-07
 Reference value :  5.03317e-07
 Reference value :  5.03969e-07
 Reference value :  5.04812e-07
 Reference value :  5.06726e-07
 Reference value :  5.08268e-07
 Reference value :  5.09447e-07
 Reference value :  5.10701e-07
 Reference value :  5.11951e-07
 Reference value :  5.13384e-07
 Reference value :  5.15119e-07
 Reference value :  5.16888e-07
 Reference value :  5.21066e-07
 Reference value :  5.29312e-07
 Reference value :  5.35897e-07
 Reference value :  5.67130e-07
 Reference value :  6.67586e-07
 Reference value :  7.50110e-07
 Reference value :  7.50170e-07
 Reference value :  7.50208e-07
 Reference value :  7.50254e-07
 Reference value :  7.50440e-07
 Reference value :  7.50795e-07
 Reference value :  7.51193e-07
 Reference value :  7.51624e-07
 Reference value :  7.52099e-07
 Reference value :  7.52670e-07
 Reference value :  7.53410e-07
 Reference value :  7.53932e-07
 Reference value :  7.54522e-07
 Reference value :  7.55072e-07
 Reference value :  7.55687e-07
 Reference value :  7.56509e-07
 Reference value :  7.58278e-07
 Reference value :  7.59228e-07
 Reference value :  7.61863e-07
 Reference value :  7.67559e-07
 Reference value :  7.84281e-07
 Reference value :  8.35487e-07
 Reference value :  9.03762e-07
 Reference value :  1.00001e-06
 Reference value :  1.00003e-06
 Reference value :  1.00010e-06
 Reference value :  1.00012e-06
 Reference value :  1.00022e-06
 Reference value :  1.00049e-06
 Reference value :  1.00127e-06
 Reference value :  1.00174e-06
 Reference value :  1.00218e-06
 Reference value :  1.00267e-06
 Reference value :  1.00333e-06
 Reference value :  1.00444e-06
 Reference value :  1.00556e-06
 Reference value :  1.00618e-06
 Reference value :  1.00763e-06
 Reference value :  1.00977e-06
 Reference value :  1.01079e-06
 Reference value :  1.01183e-06
 Reference value :  1.01300e-06
 Reference value :  1.01383e-06
 Reference value :  1.01461e-06
 Reference value :  1.01560e-06
 Reference value :  1.01661e-06
 Reference value :  1.01880e-06
 Reference value :  1.02006e-06
 Reference value :  1.02188e-06
 Reference value :  1.02835e-06
 Reference value :  1.03699e-06
 Reference value :  1.05078e-06
 Reference value :  1.07834e-06
 Reference value :  1.11475e-06
 Reference value :  1.14602e-06
 Reference value :  1.16858e-06
 Reference value :  1.18536e-06
 Reference value :  1.20084e-06
 Reference value :  1.21560e-06
 Reference value :  1.24758e-06
 Reference value :  1.25011e-06
 Reference value :  1.25013e-06
 Reference value :  1.25020e-06
 Reference value :  1.25022e-06
 Reference value :  1.25032e-06
 Reference value :  1.25044e-06
 Reference value :  1.25058e-06
 Reference value :  1.25080e-06
 Reference value :  1.25122e-06
 Reference value :  1.25164e-06
 Reference value :  1.25212e-06
 Reference value :  1.25347e-06
 Reference value :  1.25400e-06
 Reference value :  1.25524e-06
 Reference value :  1.25683e-06
 Reference value :  1.26269e-06
 Reference value :  1.29488e-06
 Reference value :  1.40523e-06
 Reference value :  1.50001e-06
 Reference value :  1.50007e-06
 Reference value :  1.50012e-06
 Reference value :  1.50022e-06
 Reference value :  1.50049e-06
 Reference value :  1.50127e-06
 Reference value :  1.50218e-06
 Reference value :  1.50322e-06
 Reference value :  1.50440e-06
 Reference value :  1.50506e-06
 Reference value :  1.50614e-06
 Reference value :  1.50815e-06
 Reference value :  1.51015e-06
 Reference value :  1.51123e-06
 Reference value :  1.51892e-06
 Reference value :  1.54086e-06
 Reference value :  1.61653e-06
 Reference value :  1.75011e-06
 Reference value :  1.75017e-06
 Reference value :  1.75021e-06
 Reference value :  1.75032e-06
 Reference value :  1.75058e-06
 Reference value :  1.75122e-06
 Reference value :  1.75164e-06
 Reference value :  1.75269e-06
 Reference value :  1.75347e-06
 Reference value :  1.75399e-06
 Reference value :  1.75516e-06
 Reference value :  1.75662e-06
 Reference value :  1.75924e-06
 Reference value :  1.77347e-06
 Reference value :  1.88511e-06
 Reference value :  2.00001e-06
 Reference value :  2.00007e-06
 Reference value :  2.00011e-06
 Reference value :  2.00015e-06
 Reference value :  2.00033e-06
 Reference value :  2.00081e-06
 Reference value :  2.00127e-06
 Reference value :  2.00218e-06
 Reference value :  2.00333e-06
 Reference value :  2.00443e-06
 Reference value :  2.00501e-06
 Reference value :  2.00556e-06
 Reference value :  2.00619e-06
 Reference value :  2.00764e-06
 Reference value :  2.01007e-06
 Reference value :  2.01151e-06
 Reference value :  2.01276e-06
 Reference value :  2.01380e-06
 Reference value :  2.01587e-06
 Reference value :  2.01693e-06
 Reference value :  2.01924e-06
 Reference value :  2.02249e-06
 Reference value :  2.03154e-06
 Reference value :  2.05517e-06
 Reference value :  2.07159e-06
 Reference value :  2.08652e-06
 Reference value :  2.09769e-06
 Reference value :  2.10631e-06
 Reference value :  2.12069e-06
 Reference value :  2.15090e-06
 Reference value :  2.25010e-06
 Reference value :  2.25013e-06
 Reference value :  2.25020e-06
 Reference value :  2.25021e-06
 Reference value :  2.25022e-06
 Reference value :  2.25032e-06
 Reference value :  2.25044e-06
 Reference value :  2.25080e-06
 Reference value :  2.25162e-06
 Reference value :  2.25267e-06
 Reference value :  2.25342e-06
 Reference value :  2.25392e-06
 Reference value :  2.25517e-06
 Reference value :  2.25587e-06
 Reference value :  2.25820e-06
 Reference value :  2.26254e-06
 Reference value :  2.27516e-06
 Reference value :  2.39296e-06
 Reference value :  2.50001e-06
 Reference value :  2.50007e-06
 Reference value :  2.50010e-06
 Reference value :  2.50012e-06
 Reference value :  2.50022e-06
 Reference value :  2.50049e-06
 Reference value :  2.50132e-06
 Reference value :  2.50220e-06
 Reference value :  2.50328e-06
 Reference value :  2.50394e-06
 Reference value :  2.50469e-06
 Reference value :  2.50547e-06
 Reference value :  2.50734e-06
 Reference value :  2.50822e-06
 Reference value :  2.50909e-06
 Reference value :  2.51116e-06
 Reference value :  2.51486e-06
 Reference value :  2.53670e-06
 Reference value :  2.67514e-06
 Reference value :  2.75011e-06
 Reference value :  2.75017e-06
 Reference value :  2.75021e-06
 Reference value :  2.75032e-06
 Reference value :  2.75058e-06
 Reference value :  2.75122e-06
 Reference value :  2.75164e-06
 Reference value :  2.75269e-06
 Reference value :  2.75346e-06
 Reference value :  2.75398e-06
 Reference value :  2.75513e-06
 Reference value :  2.75658e-06
 Reference value :  2.75839e-06
 Reference value :  2.76074e-06
 Reference value :  2.76454e-06
 Reference value :  2.78608e-06
 Reference value :  2.84556e-06
 Reference value :  3.00000e-06
 Reference value :  3.00003e-06
 Reference value :  3.00010e-06
 Reference value :  3.00012e-06
 Reference value :  3.00022e-06
 Reference value :  3.00049e-06
 Reference value :  3.00081e-06
 Reference value :  3.00127e-06
 Reference value :  3.00218e-06
 Reference value :  3.00332e-06
 Reference value :  3.00442e-06
 Reference value :  3.00556e-06
 Reference value :  3.00617e-06
 Reference value :  3.00763e-06
 Reference value :  3.00976e-06
 Reference value :  3.01078e-06
 Reference value :  3.01298e-06
 Reference value :  3.01381e-06
 Reference value :  3.01558e-06
 Reference value :  3.01757e-06
 Reference value :  3.01876e-06
 Reference value :  3.02180e-06
 Reference value :  3.03631e-06
 Reference value :  3.04509e-06
 Reference value :  3.05396e-06
 Reference value :  3.05985e-06
 Reference value :  3.07006e-06
 Reference value :  3.08182e-06
 Reference value :  3.11151e-06
 Reference value :  3.14341e-06
 Reference value :  3.24195e-06
 Reference value :  3.25011e-06
 Reference value :  3.25017e-06
 Reference value :  3.25021e-06
 Reference value :  3.25025e-06
 Reference value :  3.25044e-06
 Reference value :  3.25080e-06
 Reference value :  3.25162e-06
 Reference value :  3.25267e-06
 Reference value :  3.25342e-06
 Reference value :  3.25395e-06
 Reference value :  3.25515e-06
 Reference value :  3.25674e-06
 Reference value :  3.25952e-06
 Reference value :  3.27471e-06
 Reference value :  3.39238e-06
 Reference value :  3.50001e-06
 Reference value :  3.50007e-06
 Reference value :  3.50010e-06
 Reference value :  3.50011e-06
 Reference value :  3.50022e-06
 Reference value :  3.50033e-06
 Reference value :  3.50081e-06
 Reference value :  3.50127e-06
 Reference value :  3.50218e-06
 Reference value :  3.50322e-06
 Reference value :  3.50440e-06
 Reference value :  3.50614e-06
 Reference value :  3.50816e-06
 Reference value :  3.51015e-06
 Reference value :  3.51124e-06
 Reference value :  3.51884e-06
 Reference value :  3.56546e-06
 Reference value :  3.75010e-06
 Reference value :  3.75013e-06
 Reference value :  3.75020e-06
 Reference value :  3.75026e-06
 Reference value :  3.75044e-06
 Reference value :  3.75080e-06
 Reference value :  3.75164e-06
 Reference value :  3.75212e-06
 Reference value :  3.75269e-06
 Reference value :  3.75347e-06
 Reference value :  3.75399e-06
 Reference value :  3.75459e-06
 Reference value :  3.75515e-06
 Reference value :  3.75662e-06
 Reference value :  3.75923e-06
 Reference value :  3.77340e-06
 Reference value :  3.88448e-06
 Reference value :  4.00003e-06
 Reference value :  4.00007e-06
 Reference value :  4.00011e-06
 Reference value :  4.00015e-06
 Reference value :  4.00033e-06
 Reference value :  4.00049e-06
 Reference value :  4.00127e-06
 Reference value :  4.00218e-06
 Reference value :  4.00332e-06
 Reference value :  4.00443e-06
 Reference value :  4.00556e-06
 Reference value :  4.00618e-06
 Reference value :  4.00764e-06
 Reference value :  4.01006e-06
 Reference value :  4.01288e-06
 Reference value :  4.01394e-06
 Reference value :  4.01605e-06
 Reference value :  4.01709e-06
 Reference value :  4.01936e-06
 Reference value :  4.02271e-06
 Reference value :  4.03032e-06
 Reference value :  4.04275e-06
 Reference value :  4.04991e-06
 Reference value :  4.05518e-06
 Reference value :  4.06539e-06
 Reference value :  4.08309e-06
 Reference value :  4.11828e-06
 Reference value :  4.23730e-06
 Reference value :  4.25011e-06
 Reference value :  4.25017e-06
 Reference value :  4.25021e-06
 Reference value :  4.25025e-06
 Reference value :  4.25038e-06
 Reference value :  4.25068e-06
 Reference value :  4.25132e-06
 Reference value :  4.25176e-06
 Reference value :  4.25224e-06
 Reference value :  4.25289e-06
 Reference value :  4.25375e-06
 Reference value :  4.25430e-06
 Reference value :  4.25566e-06
 Reference value :  4.25654e-06
 Reference value :  4.25899e-06
 Reference value :  4.26498e-06
 Reference value :  4.28353e-06
 Reference value :  4.34191e-06
 Reference value :  4.50000e-06
 Reference value :  4.50001e-06
 Reference value :  4.50007e-06
 Reference value :  4.50011e-06
 Reference value :  4.50015e-06
 Reference value :  4.50034e-06
 Reference value :  4.50095e-06
 Reference value :  4.50158e-06
 Reference value :  4.50263e-06
 Reference value :  4.50376e-06
 Reference value :  4.50441e-06
 Reference value :  4.50603e-06
 Reference value :  4.50709e-06
 Reference value :  4.50798e-06
 Reference value :  4.50992e-06
 Reference value :  4.51254e-06
 Reference value :  4.52311e-06
 Reference value :  4.59030e-06
 Reference value :  4.75011e-06
 Reference value :  4.75017e-06
 Reference value :  4.75021e-06
 Reference value :  4.75025e-06
 Reference value :  4.75038e-06
 Reference value :  4.75068e-06
 Reference value :  4.75092e-06
 Reference value :  4.75132e-06
 Reference value :  4.75176e-06
 Reference value :  4.75224e-06
 Reference value :  4.75289e-06
 Reference value :  4.75377e-06
 Reference value :  4.75433e-06
 Reference value :  4.75565e-06
 Reference value :  4.75635e-06
 Reference value :  4.75718e-06
 Reference value :  4.75814e-06
 Reference value :  4.76031e-06
 Reference value :  4.76362e-06
 Reference value :  4.77259e-06
 Reference value :  4.82421e-06
 Reference value :  5.00000e-06
 Reference value :  5.00003e-06
 Reference value :  5.00010e-06
 Reference value :  5.00012e-06
 Reference value :  5.00022e-06
 Reference value :  5.00059e-06
 Reference value :  5.00158e-06
 Reference value :  5.00265e-06
 Reference value :  5.00378e-06
 Reference value :  5.00494e-06
 Reference value :  5.00605e-06
 Reference value :  5.00753e-06
 Reference value :  5.00962e-06
 Reference value :  5.01053e-06
 Reference value :  5.01267e-06
 Reference value :  5.01469e-06
 Reference value :  5.01687e-06
 Reference value :  5.01797e-06
 Reference value :  5.02067e-06
 Reference value :  5.02524e-06
 Reference value :  5.03040e-06
 Reference value :  5.03236e-06
 Reference value :  5.03561e-06
 Reference value :  5.04318e-06
 Reference value :  5.05430e-06
 Reference value :  5.09693e-06
 Reference value :  5.17223e-06
 Reference value :  5.25010e-06
 Reference value :  5.25013e-06
 Reference value :  5.25020e-06
 Reference value :  5.25022e-06
 Reference value :  5.25031e-06
 Reference value :  5.25051e-06
 Reference value :  5.25091e-06
 Reference value :  5.25173e-06
 Reference value :  5.25283e-06
 Reference value :  5.25427e-06
 Reference value :  5.25576e-06
 Reference value :  5.25749e-06
 Reference value :  5.26130e-06
 Reference value :  5.28392e-06
 Reference value :  5.34380e-06
 Reference value :  5.50000e-06
 Reference value :  5.50003e-06
 Reference value :  5.50010e-06
 Reference value :  5.50012e-06
 Reference value :  5.50022e-06
 Reference value :  5.50059e-06
 Reference value :  5.50158e-06
 Reference value :  5.50266e-06
 Reference value :  5.50377e-06
 Reference value :  5.50439e-06
 Reference value :  5.50515e-06
 Reference value :  5.50709e-06
 Reference value :  5.50798e-06
 Reference value :  5.50993e-06
 Reference value :  5.51256e-06
 Reference value :  5.51427e-06
 Reference value :  5.53338e-06
 Reference value :  5.67320e-06
 Reference value :  5.75011e-06
 Reference value :  5.75017e-06
 Reference value :  5.75021e-06
 Reference value :  5.75025e-06
 Reference value :  5.75038e-06
 Reference value :  5.75068e-06
 Reference value :  5.75132e-06
 Reference value :  5.75224e-06
 Reference value :  5.75376e-06
 Reference value :  5.75433e-06
 Reference value :  5.75564e-06
 Reference value :  5.75730e-06
 Reference value :  5.75832e-06
 Reference value :  5.76036e-06
 Reference value :  5.76887e-06
 Reference value :  5.82752e-06
 Reference value :  6.00000e-06
 Reference value :  6.00003e-06
 Reference value :  6.00010e-06
 Reference value :  6.00012e-06
 Reference value :  6.00022e-06
 Reference value :  6.00059e-06
 Reference value :  6.00095e-06
 Reference value :  6.00216e-06
 Reference value :  6.00265e-06
 Reference value :  6.00379e-06
 Reference value :  6.00501e-06
 Reference value :  6.00625e-06
 Reference value :  6.00780e-06
 Reference value :  6.01024e-06
 Reference value :  6.01167e-06
 Reference value :  6.01297e-06
 Reference value :  6.01399e-06
 Reference value :  6.01605e-06
 Reference value :  6.01826e-06
 Reference value :  6.02118e-06
 Reference value :  6.02623e-06
 Reference value :  6.03091e-06
 Reference value :  6.04333e-06
 Reference value :  6.05110e-06
 Reference value :  6.05663e-06
 Reference value :  6.06840e-06
 Reference value :  6.08213e-06
 Reference value :  6.11822e-06
 Reference value :  6.22941e-06
 Reference value :  6.25011e-06
 Reference value :  6.25017e-06
 Reference value :  6.25020e-06
 Reference value :  6.25021e-06
 Reference value :  6.25022e-06
 Reference value :  6.25025e-06
 Reference value :  6.25038e-06
 Reference value :  6.25066e-06
 Reference value :  6.25129e-06
 Reference value :  6.25174e-06
 Reference value :  6.25284e-06
 Reference value :  6.25369e-06
 Reference value :  6.25424e-06
 Reference value :  6.25562e-06
 Reference value :  6.25735e-06
 Reference value :  6.26109e-06
 Reference value :  6.27180e-06
 Reference value :  6.34286e-06
 Reference value :  6.50000e-06
 Reference value :  6.50003e-06
 Reference value :  6.50010e-06
 Reference value :  6.50012e-06
 Reference value :  6.50022e-06
 Reference value :  6.50059e-06
 Reference value :  6.50158e-06
 Reference value :  6.50263e-06
 Reference value :  6.50375e-06
 Reference value :  6.50512e-06
 Reference value :  6.50709e-06
 Reference value :  6.50798e-06
 Reference value :  6.50992e-06
 Reference value :  6.51097e-06
 Reference value :  6.51422e-06
 Reference value :  6.52308e-06
 Reference value :  6.55183e-06
 Reference value :  6.75010e-06
 Reference value :  6.75013e-06
 Reference value :  6.75020e-06
 Reference value :  6.75025e-06
 Reference value :  6.75038e-06
 Reference value :  6.75068e-06
 Reference value :  6.75132e-06
 Reference value :  6.75176e-06
 Reference value :  6.75289e-06
 Reference value :  6.75433e-06
 Reference value :  6.75565e-06
 Reference value :  6.75635e-06
 Reference value :  6.75718e-06
 Reference value :  6.75927e-06
 Reference value :  6.76190e-06
 Reference value :  6.77259e-06
 Reference value :  6.79775e-06
 Reference value :  6.95389e-06
 Reference value :  7.00001e-06
 Reference value :  7.00007e-06
 Reference value :  7.00011e-06
 Reference value :  7.00015e-06
 Reference value :  7.00034e-06
 Reference value :  7.00095e-06
 Reference value :  7.00216e-06
 Reference value :  7.00265e-06
 Reference value :  7.00321e-06
 Reference value :  7.00378e-06
 Reference value :  7.00494e-06
 Reference value :  7.00605e-06
 Reference value :  7.00753e-06
 Reference value :  7.00962e-06
 Reference value :  7.01053e-06
 Reference value :  7.01256e-06
 Reference value :  7.01469e-06
 Reference value :  7.01674e-06
 Reference value :  7.01790e-06
 Reference value :  7.02056e-06
 Reference value :  7.02537e-06
 Reference value :  7.03598e-06
 Reference value :  7.06174e-06
 Reference value :  7.08641e-06
 Reference value :  7.11146e-06
 Reference value :  7.12959e-06
 Reference value :  7.17064e-06
 Reference value :  7.25010e-06
 Reference value :  7.25013e-06
 Reference value :  7.25020e-06
 Reference value :  7.25021e-06
 Reference value :  7.25025e-06
 Reference value :  7.25051e-06
 Reference value :  7.25129e-06
 Reference value :  7.25220e-06
 Reference value :  7.25369e-06
 Reference value :  7.25427e-06
 Reference value :  7.25575e-06
 Reference value :  7.25748e-06
 Reference value :  7.26128e-06
 Reference value :  7.28379e-06
 Reference value :  7.40938e-06
 Reference value :  7.50001e-06
 Reference value :  7.50007e-06
 Reference value :  7.50011e-06
 Reference value :  7.50015e-06
 Reference value :  7.50034e-06
 Reference value :  7.50095e-06
 Reference value :  7.50216e-06
 Reference value :  7.50266e-06
 Reference value :  7.50321e-06
 Reference value :  7.50377e-06
 Reference value :  7.50524e-06
 Reference value :  7.50720e-06
 Reference value :  7.50831e-06
 Reference value :  7.51050e-06
 Reference value :  7.51171e-06
 Reference value :  7.51950e-06
 Reference value :  7.55891e-06
 Reference value :  7.67406e-06
 Reference value :  7.75011e-06
 Reference value :  7.75017e-06
 Reference value :  7.75021e-06
 Reference value :  7.75025e-06
 Reference value :  7.75038e-06
 Reference value :  7.75068e-06
 Reference value :  7.75132e-06
 Reference value :  7.75176e-06
 Reference value :  7.75289e-06
 Reference value :  7.75376e-06
 Reference value :  7.75433e-06
 Reference value :  7.75564e-06
 Reference value :  7.75729e-06
 Reference value :  7.76034e-06
 Reference value :  7.77825e-06
 Reference value :  7.88181e-06
 Reference value :  8.00001e-06
 Reference value :  8.00007e-06
 Reference value :  8.00011e-06
 Reference value :  8.00015e-06
 Reference value :  8.00034e-06
 Reference value :  8.00095e-06
 Reference value :  8.00216e-06
 Reference value :  8.00265e-06
 Reference value :  8.00379e-06
 Reference value :  8.00500e-06
 Reference value :  8.00623e-06
 Reference value :  8.00778e-06
 Reference value :  8.00863e-06
 Reference value :  8.01053e-06
 Reference value :  8.01782e-06
 Reference value :  8.06205e-06
 Reference value :  8.25010e-06
 Reference value :  8.25013e-06
 Reference value :  8.25020e-06
 Reference value :  8.25022e-06
 Reference value :  8.25032e-06
 Reference value :  8.25057e-06
 Reference value :  8.25114e-06
 Reference value :  8.25202e-06
 Reference value :  8.25325e-06
 Reference value :  8.25421e-06
 Reference value :  8.25638e-06
 Reference value :  8.25885e-06
 Reference value :  8.26958e-06
 Reference value :  8.30585e-06
 Reference value :  8.50000e-06
No. of Data Rows : 1271
ngspice-44 done
