
Note: Compatibility modes selected: hs a


Circuit: ** sch_path: /home/audrey/cace/sar-adc-using-sky130-pdk/runs/run_2025-09-09_12-30-42/parameters/power/run_0/power_consumption.sch

option SCALE: Scale is set to 1e-06 for instance and model parameters
option SCALE: Scale is set to 1e-06 for instance and model parameters
option SCALE: Scale is set to 1e-06 for instance and model parameters
option SCALE: Scale is set to 1e-06 for instance and model parameters
Doing analysis at TEMP = 27.000000 and TNOM = 27.000000

Using KLU as Direct Linear Solver
 Reference value :  0.00000e+00
 Reference value :  2.00000e-12
 Reference value :  8.00000e-12
 Reference value :  6.40000e-11
 Reference value :  1.06400e-10
 Reference value :  1.44800e-10
 Reference value :  2.98400e-10
 Reference value :  7.06848e-10
 Reference value :  1.38415e-09
 Reference value :  1.76983e-09
 Reference value :  2.51835e-09
 Reference value :  3.35161e-09
 Reference value :  3.77099e-09
 Reference value :  4.82679e-09
 Reference value :  6.18374e-09
 Reference value :  7.83451e-09
 Reference value :  8.73184e-09
 Reference value :  1.04646e-08
 Reference value :  1.19530e-08
 Reference value :  1.57944e-08
 Reference value :  1.78876e-08
 Reference value :  2.15623e-08
 Reference value :  2.36745e-08
 Reference value :  2.60268e-08
 Reference value :  2.98460e-08
 Reference value :  3.63697e-08
 Reference value :  5.06659e-08
 Reference value :  1.01517e-07
 Reference value :  1.99042e-07
 Reference value :  2.32901e-07
 Reference value :  2.50110e-07
 Reference value :  2.50200e-07
 Reference value :  2.50220e-07
 Reference value :  2.50300e-07
 Reference value :  2.50522e-07
 Reference value :  2.50926e-07
 Reference value :  2.51642e-07
 Reference value :  2.52612e-07
 Reference value :  2.53780e-07
 Reference value :  2.54915e-07
 Reference value :  2.56437e-07
 Reference value :  2.59191e-07
 Reference value :  2.72233e-07
 Reference value :  3.49823e-07
 Reference value :  5.00010e-07
 Reference value :  5.00070e-07
 Reference value :  5.00124e-07
 Reference value :  5.00220e-07
 Reference value :  5.00338e-07
 Reference value :  5.00827e-07
 Reference value :  5.01527e-07
 Reference value :  5.02329e-07
 Reference value :  5.02809e-07
 Reference value :  5.03886e-07
 Reference value :  5.05343e-07
 Reference value :  5.06437e-07
 Reference value :  5.07729e-07
 Reference value :  5.08780e-07
 Reference value :  5.11224e-07
 Reference value :  5.12519e-07
 Reference value :  5.15654e-07
 Reference value :  5.20815e-07
 Reference value :  5.34107e-07
 Reference value :  5.82486e-07
 Reference value :  7.50110e-07
 Reference value :  7.50170e-07
 Reference value :  7.50208e-07
 Reference value :  7.50256e-07
 Reference value :  7.50448e-07
 Reference value :  7.50688e-07
 Reference value :  7.50986e-07
 Reference value :  7.51397e-07
 Reference value :  7.51860e-07
 Reference value :  7.52989e-07
 Reference value :  7.53445e-07
 Reference value :  7.53970e-07
 Reference value :  7.54482e-07
 Reference value :  7.55026e-07
 Reference value :  7.55766e-07
 Reference value :  7.56539e-07
 Reference value :  7.57442e-07
 Reference value :  7.58270e-07
 Reference value :  7.60915e-07
 Reference value :  7.66982e-07
 Reference value :  7.87952e-07
 Reference value :  9.83675e-07
 Reference value :  1.00001e-06
 Reference value :  1.00003e-06
 Reference value :  1.00010e-06
 Reference value :  1.00012e-06
 Reference value :  1.00022e-06
 Reference value :  1.00052e-06
 Reference value :  1.00083e-06
 Reference value :  1.00157e-06
 Reference value :  1.00242e-06
 Reference value :  1.00290e-06
 Reference value :  1.00342e-06
 Reference value :  1.00389e-06
 Reference value :  1.00439e-06
 Reference value :  1.00484e-06
 Reference value :  1.00592e-06
 Reference value :  1.00757e-06
 Reference value :  1.00933e-06
 Reference value :  1.01018e-06
 Reference value :  1.01114e-06
 Reference value :  1.01269e-06
 Reference value :  1.01353e-06
 Reference value :  1.01440e-06
 Reference value :  1.01622e-06
 Reference value :  1.01719e-06
 Reference value :  1.01875e-06
 Reference value :  1.02039e-06
 Reference value :  1.02878e-06
 Reference value :  1.03668e-06
 Reference value :  1.05137e-06
 Reference value :  1.13350e-06
 Reference value :  1.18942e-06
 Reference value :  1.23947e-06
 Reference value :  1.25010e-06
 Reference value :  1.25011e-06
 Reference value :  1.25017e-06
 Reference value :  1.25021e-06
 Reference value :  1.25022e-06
 Reference value :  1.25032e-06
 Reference value :  1.25069e-06
 Reference value :  1.25098e-06
 Reference value :  1.25140e-06
 Reference value :  1.25230e-06
 Reference value :  1.25300e-06
 Reference value :  1.25346e-06
 Reference value :  1.25399e-06
 Reference value :  1.25467e-06
 Reference value :  1.25607e-06
 Reference value :  1.25756e-06
 Reference value :  1.26191e-06
 Reference value :  1.26580e-06
 Reference value :  1.27844e-06
 Reference value :  1.29158e-06
 Reference value :  1.36059e-06
 Reference value :  1.45116e-06
 Reference value :  1.50001e-06
 Reference value :  1.50007e-06
 Reference value :  1.50011e-06
 Reference value :  1.50016e-06
 Reference value :  1.50022e-06
 Reference value :  1.50052e-06
 Reference value :  1.50083e-06
 Reference value :  1.50119e-06
 Reference value :  1.50158e-06
 Reference value :  1.50242e-06
 Reference value :  1.50290e-06
 Reference value :  1.50342e-06
 Reference value :  1.50474e-06
 Reference value :  1.50552e-06
 Reference value :  1.50616e-06
 Reference value :  1.50689e-06
 Reference value :  1.50771e-06
 Reference value :  1.50957e-06
 Reference value :  1.51086e-06
 Reference value :  1.51253e-06
 Reference value :  1.52074e-06
 Reference value :  1.54875e-06
 Reference value :  1.65986e-06
 Reference value :  1.75010e-06
 Reference value :  1.75013e-06
 Reference value :  1.75020e-06
 Reference value :  1.75021e-06
 Reference value :  1.75026e-06
 Reference value :  1.75032e-06
 Reference value :  1.75069e-06
 Reference value :  1.75098e-06
 Reference value :  1.75140e-06
 Reference value :  1.75186e-06
 Reference value :  1.75230e-06
 Reference value :  1.75299e-06
 Reference value :  1.75345e-06
 Reference value :  1.75398e-06
 Reference value :  1.75449e-06
 Reference value :  1.75503e-06
 Reference value :  1.75580e-06
 Reference value :  1.75662e-06
 Reference value :  1.76030e-06
 Reference value :  1.76365e-06
 Reference value :  1.80790e-06
 Reference value :  1.95959e-06
 Reference value :  2.00001e-06
 Reference value :  2.00003e-06
 Reference value :  2.00010e-06
 Reference value :  2.00016e-06
 Reference value :  2.00034e-06
 Reference value :  2.00052e-06
 Reference value :  2.00083e-06
 Reference value :  2.00158e-06
 Reference value :  2.00201e-06
 Reference value :  2.00289e-06
 Reference value :  2.00396e-06
 Reference value :  2.00450e-06
 Reference value :  2.00500e-06
 Reference value :  2.00631e-06
 Reference value :  2.00847e-06
 Reference value :  2.01120e-06
 Reference value :  2.01223e-06
 Reference value :  2.01323e-06
 Reference value :  2.01428e-06
 Reference value :  2.01525e-06
 Reference value :  2.01626e-06
 Reference value :  2.01737e-06
 Reference value :  2.02073e-06
 Reference value :  2.02872e-06
 Reference value :  2.03344e-06
 Reference value :  2.03714e-06
 Reference value :  2.04073e-06
 Reference value :  2.04458e-06
 Reference value :  2.04752e-06
 Reference value :  2.05073e-06
 Reference value :  2.05384e-06
 Reference value :  2.05739e-06
 Reference value :  2.06889e-06
 Reference value :  2.07502e-06
 Reference value :  2.08965e-06
 Reference value :  2.10385e-06
 Reference value :  2.12457e-06
 Reference value :  2.23552e-06
 Reference value :  2.25011e-06
 Reference value :  2.25013e-06
 Reference value :  2.25017e-06
 Reference value :  2.25021e-06
 Reference value :  2.25026e-06
 Reference value :  2.25069e-06
 Reference value :  2.25098e-06
 Reference value :  2.25140e-06
 Reference value :  2.25230e-06
 Reference value :  2.25299e-06
 Reference value :  2.25344e-06
 Reference value :  2.25395e-06
 Reference value :  2.25527e-06
 Reference value :  2.25595e-06
 Reference value :  2.25732e-06
 Reference value :  2.26147e-06
 Reference value :  2.26495e-06
 Reference value :  2.28581e-06
 Reference value :  2.36925e-06
 Reference value :  2.50000e-06
 Reference value :  2.50001e-06
 Reference value :  2.50003e-06
 Reference value :  2.50010e-06
 Reference value :  2.50012e-06
 Reference value :  2.50016e-06
 Reference value :  2.50034e-06
 Reference value :  2.50083e-06
 Reference value :  2.50119e-06
 Reference value :  2.50154e-06
 Reference value :  2.50235e-06
 Reference value :  2.50282e-06
 Reference value :  2.50333e-06
 Reference value :  2.50464e-06
 Reference value :  2.50536e-06
 Reference value :  2.50598e-06
 Reference value :  2.50749e-06
 Reference value :  2.50924e-06
 Reference value :  2.51029e-06
 Reference value :  2.51366e-06
 Reference value :  2.51681e-06
 Reference value :  2.52245e-06
 Reference value :  2.53223e-06
 Reference value :  2.58179e-06
 Reference value :  2.75010e-06
 Reference value :  2.75013e-06
 Reference value :  2.75020e-06
 Reference value :  2.75022e-06
 Reference value :  2.75032e-06
 Reference value :  2.75069e-06
 Reference value :  2.75098e-06
 Reference value :  2.75186e-06
 Reference value :  2.75299e-06
 Reference value :  2.75344e-06
 Reference value :  2.75448e-06
 Reference value :  2.75502e-06
 Reference value :  2.75580e-06
 Reference value :  2.75661e-06
 Reference value :  2.75837e-06
 Reference value :  2.75965e-06
 Reference value :  2.76368e-06
 Reference value :  2.79019e-06
 Reference value :  2.88108e-06
 Reference value :  3.00001e-06
 Reference value :  3.00010e-06
 Reference value :  3.00016e-06
 Reference value :  3.00022e-06
 Reference value :  3.00034e-06
 Reference value :  3.00083e-06
 Reference value :  3.00158e-06
 Reference value :  3.00201e-06
 Reference value :  3.00242e-06
 Reference value :  3.00290e-06
 Reference value :  3.00342e-06
 Reference value :  3.00390e-06
 Reference value :  3.00484e-06
 Reference value :  3.00593e-06
 Reference value :  3.00758e-06
 Reference value :  3.00841e-06
 Reference value :  3.00928e-06
 Reference value :  3.01016e-06
 Reference value :  3.01191e-06
 Reference value :  3.01357e-06
 Reference value :  3.01446e-06
 Reference value :  3.01633e-06
 Reference value :  3.02081e-06
 Reference value :  3.03943e-06
 Reference value :  3.05311e-06
 Reference value :  3.10896e-06
 Reference value :  3.18021e-06
 Reference value :  3.22188e-06
 Reference value :  3.25013e-06
 Reference value :  3.25020e-06
 Reference value :  3.25022e-06
 Reference value :  3.25032e-06
 Reference value :  3.25098e-06
 Reference value :  3.25140e-06
 Reference value :  3.25186e-06
 Reference value :  3.25229e-06
 Reference value :  3.25345e-06
 Reference value :  3.25462e-06
 Reference value :  3.25527e-06
 Reference value :  3.25601e-06
 Reference value :  3.25897e-06
 Reference value :  3.27279e-06
 Reference value :  3.31692e-06
 Reference value :  3.37575e-06
 Reference value :  3.50001e-06
 Reference value :  3.50003e-06
 Reference value :  3.50010e-06
 Reference value :  3.50012e-06
 Reference value :  3.50034e-06
 Reference value :  3.50052e-06
 Reference value :  3.50083e-06
 Reference value :  3.50119e-06
 Reference value :  3.50154e-06
 Reference value :  3.50235e-06
 Reference value :  3.50282e-06
 Reference value :  3.50333e-06
 Reference value :  3.50389e-06
 Reference value :  3.50464e-06
 Reference value :  3.50598e-06
 Reference value :  3.50749e-06
 Reference value :  3.50839e-06
 Reference value :  3.50924e-06
 Reference value :  3.51029e-06
 Reference value :  3.51363e-06
 Reference value :  3.51676e-06
 Reference value :  3.53199e-06
 Reference value :  3.64592e-06
 Reference value :  3.75011e-06
 Reference value :  3.75017e-06
 Reference value :  3.75020e-06
 Reference value :  3.75021e-06
 Reference value :  3.75022e-06
 Reference value :  3.75026e-06
 Reference value :  3.75032e-06
 Reference value :  3.75069e-06
 Reference value :  3.75098e-06
 Reference value :  3.75140e-06
 Reference value :  3.75186e-06
 Reference value :  3.75229e-06
 Reference value :  3.75299e-06
 Reference value :  3.75344e-06
 Reference value :  3.75397e-06
 Reference value :  3.75448e-06
 Reference value :  3.75579e-06
 Reference value :  3.75750e-06
 Reference value :  3.75835e-06
 Reference value :  3.75963e-06
 Reference value :  3.76364e-06
 Reference value :  3.76737e-06
 Reference value :  3.78974e-06
 Reference value :  4.00000e-06
 Reference value :  4.00003e-06
 Reference value :  4.00011e-06
 Reference value :  4.00016e-06
 Reference value :  4.00034e-06
 Reference value :  4.00083e-06
 Reference value :  4.00119e-06
 Reference value :  4.00158e-06
 Reference value :  4.00242e-06
 Reference value :  4.00290e-06
 Reference value :  4.00390e-06
 Reference value :  4.00440e-06
 Reference value :  4.00484e-06
 Reference value :  4.00534e-06
 Reference value :  4.00593e-06
 Reference value :  4.00664e-06
 Reference value :  4.00758e-06
 Reference value :  4.00841e-06
 Reference value :  4.00928e-06
 Reference value :  4.01016e-06
 Reference value :  4.01112e-06
 Reference value :  4.01191e-06
 Reference value :  4.01270e-06
 Reference value :  4.01355e-06
 Reference value :  4.01444e-06
 Reference value :  4.01533e-06
 Reference value :  4.01630e-06
 Reference value :  4.01731e-06
 Reference value :  4.01911e-06
 Reference value :  4.02076e-06
 Reference value :  4.02406e-06
 Reference value :  4.02995e-06
 Reference value :  4.03849e-06
 Reference value :  4.04682e-06
 Reference value :  4.05622e-06
 Reference value :  4.06362e-06
 Reference value :  4.06783e-06
 Reference value :  4.07166e-06
 Reference value :  4.07614e-06
 Reference value :  4.08110e-06
 Reference value :  4.08926e-06
 Reference value :  4.09988e-06
 Reference value :  4.11577e-06
 Reference value :  4.13918e-06
 Reference value :  4.17502e-06
 Reference value :  4.21354e-06
 Reference value :  4.25010e-06
 Reference value :  4.25011e-06
 Reference value :  4.25013e-06
 Reference value :  4.25017e-06
 Reference value :  4.25020e-06
 Reference value :  4.25021e-06
 Reference value :  4.25022e-06
 Reference value :  4.25026e-06
 Reference value :  4.25032e-06
 Reference value :  4.25045e-06
 Reference value :  4.25069e-06
 Reference value :  4.25098e-06
 Reference value :  4.25140e-06
 Reference value :  4.25186e-06
 Reference value :  4.25229e-06
 Reference value :  4.25299e-06
 Reference value :  4.25343e-06
 Reference value :  4.25395e-06
 Reference value :  4.25456e-06
 Reference value :  4.25526e-06
 Reference value :  4.25595e-06
 Reference value :  4.25732e-06
 Reference value :  4.25878e-06
 Reference value :  4.26149e-06
 Reference value :  4.26496e-06
 Reference value :  4.27190e-06
 Reference value :  4.28259e-06
 Reference value :  4.29468e-06
 Reference value :  4.30656e-06
 Reference value :  4.32000e-06
 Reference value :  4.33977e-06
 Reference value :  4.37560e-06
 Reference value :  4.42218e-06
 Reference value :  4.49529e-06
 Reference value :  4.50000e-06
 Reference value :  4.50001e-06
 Reference value :  4.50003e-06
 Reference value :  4.50007e-06
 Reference value :  4.50010e-06
 Reference value :  4.50011e-06
 Reference value :  4.50012e-06
 Reference value :  4.50016e-06
 Reference value :  4.50022e-06
 Reference value :  4.50034e-06
 Reference value :  4.50052e-06
 Reference value :  4.50083e-06
 Reference value :  4.50119e-06
 Reference value :  4.50154e-06
 Reference value :  4.50195e-06
 Reference value :  4.50235e-06
 Reference value :  4.50282e-06
 Reference value :  4.50333e-06
 Reference value :  4.50389e-06
 Reference value :  4.50464e-06
 Reference value :  4.50536e-06
 Reference value :  4.50598e-06
 Reference value :  4.50664e-06
 Reference value :  4.50749e-06
 Reference value :  4.50839e-06
 Reference value :  4.50924e-06
 Reference value :  4.51029e-06
 Reference value :  4.51144e-06
 Reference value :  4.51361e-06
 Reference value :  4.51673e-06
 Reference value :  4.52226e-06
 Reference value :  4.53183e-06
 Reference value :  4.54793e-06
 Reference value :  4.58015e-06
 Reference value :  4.64457e-06
 Reference value :  4.75010e-06
 Reference value :  4.75011e-06
 Reference value :  4.75013e-06
 Reference value :  4.75017e-06
 Reference value :  4.75020e-06
 Reference value :  4.75021e-06
 Reference value :  4.75022e-06
 Reference value :  4.75026e-06
 Reference value :  4.75032e-06
 Reference value :  4.75045e-06
 Reference value :  4.75069e-06
 Reference value :  4.75098e-06
 Reference value :  4.75140e-06
 Reference value :  4.75186e-06
 Reference value :  4.75229e-06
 Reference value :  4.75299e-06
 Reference value :  4.75344e-06
 Reference value :  4.75397e-06
 Reference value :  4.75448e-06
 Reference value :  4.75502e-06
 Reference value :  4.75579e-06
 Reference value :  4.75660e-06
 Reference value :  4.75750e-06
 Reference value :  4.75835e-06
 Reference value :  4.75962e-06
 Reference value :  4.76103e-06
 Reference value :  4.76363e-06
 Reference value :  4.76734e-06
 Reference value :  4.77475e-06
 Reference value :  4.78958e-06
 Reference value :  4.81925e-06
 Reference value :  4.87857e-06
 Reference value :  4.99723e-06
 Reference value :  5.00000e-06
 Reference value :  5.00001e-06
 Reference value :  5.00003e-06
 Reference value :  5.00007e-06
 Reference value :  5.00010e-06
 Reference value :  5.00011e-06
 Reference value :  5.00012e-06
 Reference value :  5.00016e-06
 Reference value :  5.00022e-06
 Reference value :  5.00034e-06
 Reference value :  5.00052e-06
 Reference value :  5.00083e-06
 Reference value :  5.00119e-06
 Reference value :  5.00158e-06
 Reference value :  5.00201e-06
 Reference value :  5.00242e-06
 Reference value :  5.00290e-06
 Reference value :  5.00342e-06
 Reference value :  5.00390e-06
 Reference value :  5.00440e-06
 Reference value :  5.00484e-06
 Reference value :  5.00534e-06
 Reference value :  5.00593e-06
 Reference value :  5.00664e-06
 Reference value :  5.00758e-06
 Reference value :  5.00841e-06
 Reference value :  5.00928e-06
 Reference value :  5.01015e-06
 Reference value :  5.01111e-06
 Reference value :  5.01190e-06
 Reference value :  5.01268e-06
 Reference value :  5.01354e-06
 Reference value :  5.01442e-06
 Reference value :  5.01531e-06
 Reference value :  5.01627e-06
 Reference value :  5.01727e-06
 Reference value :  5.01888e-06
 Reference value :  5.02055e-06
 Reference value :  5.02388e-06
 Reference value :  5.02736e-06
 Reference value :  5.02967e-06
 Reference value :  5.03200e-06
 Reference value :  5.03480e-06
 Reference value :  5.03736e-06
 Reference value :  5.04232e-06
 Reference value :  5.04746e-06
 Reference value :  5.05561e-06
 Reference value :  5.06754e-06
 Reference value :  5.07946e-06
 Reference value :  5.09559e-06
 Reference value :  5.11227e-06
 Reference value :  5.14563e-06
 Reference value :  5.18824e-06
 Reference value :  5.25010e-06
 Reference value :  5.25011e-06
 Reference value :  5.25013e-06
 Reference value :  5.25017e-06
 Reference value :  5.25020e-06
 Reference value :  5.25021e-06
 Reference value :  5.25022e-06
 Reference value :  5.25026e-06
 Reference value :  5.25032e-06
 Reference value :  5.25045e-06
 Reference value :  5.25069e-06
 Reference value :  5.25098e-06
 Reference value :  5.25140e-06
 Reference value :  5.25186e-06
 Reference value :  5.25229e-06
 Reference value :  5.25299e-06
 Reference value :  5.25345e-06
 Reference value :  5.25398e-06
 Reference value :  5.25460e-06
 Reference value :  5.25523e-06
 Reference value :  5.25597e-06
 Reference value :  5.25740e-06
 Reference value :  5.25888e-06
 Reference value :  5.26161e-06
 Reference value :  5.26519e-06
 Reference value :  5.27234e-06
 Reference value :  5.28665e-06
 Reference value :  5.31527e-06
 Reference value :  5.37250e-06
 Reference value :  5.48698e-06
 Reference value :  5.50000e-06
 Reference value :  5.50001e-06
 Reference value :  5.50003e-06
 Reference value :  5.50007e-06
 Reference value :  5.50010e-06
 Reference value :  5.50011e-06
 Reference value :  5.50012e-06
 Reference value :  5.50016e-06
 Reference value :  5.50022e-06
 Reference value :  5.50034e-06
 Reference value :  5.50083e-06
 Reference value :  5.50119e-06
 Reference value :  5.50158e-06
 Reference value :  5.50201e-06
 Reference value :  5.50242e-06
 Reference value :  5.50290e-06
 Reference value :  5.50342e-06
 Reference value :  5.50399e-06
 Reference value :  5.50474e-06
 Reference value :  5.50552e-06
 Reference value :  5.50616e-06
 Reference value :  5.50689e-06
 Reference value :  5.50771e-06
 Reference value :  5.50865e-06
 Reference value :  5.50956e-06
 Reference value :  5.51249e-06
 Reference value :  5.51552e-06
 Reference value :  5.52054e-06
 Reference value :  5.54753e-06
 Reference value :  5.65451e-06
 Reference value :  5.75010e-06
 Reference value :  5.75011e-06
 Reference value :  5.75013e-06
 Reference value :  5.75020e-06
 Reference value :  5.75022e-06
 Reference value :  5.75032e-06
 Reference value :  5.75045e-06
 Reference value :  5.75069e-06
 Reference value :  5.75140e-06
 Reference value :  5.75186e-06
 Reference value :  5.75229e-06
 Reference value :  5.75299e-06
 Reference value :  5.75344e-06
 Reference value :  5.75397e-06
 Reference value :  5.75448e-06
 Reference value :  5.75502e-06
 Reference value :  5.75579e-06
 Reference value :  5.75822e-06
 Reference value :  5.76358e-06
 Reference value :  5.76981e-06
 Reference value :  5.85694e-06
 Reference value :  6.00000e-06
 Reference value :  6.00001e-06
 Reference value :  6.00007e-06
 Reference value :  6.00010e-06
 Reference value :  6.00011e-06
 Reference value :  6.00012e-06
 Reference value :  6.00016e-06
 Reference value :  6.00022e-06
 Reference value :  6.00034e-06
 Reference value :  6.00052e-06
 Reference value :  6.00083e-06
 Reference value :  6.00119e-06
 Reference value :  6.00158e-06
 Reference value :  6.00242e-06
 Reference value :  6.00289e-06
 Reference value :  6.00341e-06
 Reference value :  6.00396e-06
 Reference value :  6.00450e-06
 Reference value :  6.00500e-06
 Reference value :  6.00554e-06
 Reference value :  6.00632e-06
 Reference value :  6.00709e-06
 Reference value :  6.00997e-06
 Reference value :  6.01120e-06
 Reference value :  6.01223e-06
 Reference value :  6.01428e-06
 Reference value :  6.01536e-06
 Reference value :  6.01756e-06
 Reference value :  6.02100e-06
 Reference value :  6.02890e-06
 Reference value :  6.04513e-06
 Reference value :  6.08362e-06
 Reference value :  6.17729e-06
 Reference value :  6.25011e-06
 Reference value :  6.25017e-06
 Reference value :  6.25021e-06
 Reference value :  6.25032e-06
 Reference value :  6.25069e-06
 Reference value :  6.25140e-06
 Reference value :  6.25229e-06
 Reference value :  6.25299e-06
 Reference value :  6.25345e-06
 Reference value :  6.25461e-06
 Reference value :  6.25598e-06
 Reference value :  6.25741e-06
 Reference value :  6.26162e-06
 Reference value :  6.27238e-06
 Reference value :  6.31540e-06
 Reference value :  6.48751e-06
 Reference value :  6.50001e-06
 Reference value :  6.50007e-06
 Reference value :  6.50011e-06
 Reference value :  6.50016e-06
 Reference value :  6.50034e-06
 Reference value :  6.50083e-06
 Reference value :  6.50119e-06
 Reference value :  6.50158e-06
 Reference value :  6.50242e-06
 Reference value :  6.50290e-06
 Reference value :  6.50342e-06
 Reference value :  6.50399e-06
 Reference value :  6.50474e-06
 Reference value :  6.50553e-06
 Reference value :  6.50616e-06
 Reference value :  6.50689e-06
 Reference value :  6.50771e-06
 Reference value :  6.50865e-06
 Reference value :  6.50956e-06
 Reference value :  6.51086e-06
 Reference value :  6.51249e-06
 Reference value :  6.52053e-06
 Reference value :  6.52966e-06
 Reference value :  6.58302e-06
 Reference value :  6.75010e-06
 Reference value :  6.75011e-06
 Reference value :  6.75017e-06
 Reference value :  6.75020e-06
 Reference value :  6.75021e-06
 Reference value :  6.75026e-06
 Reference value :  6.75045e-06
 Reference value :  6.75098e-06
 Reference value :  6.75139e-06
 Reference value :  6.75186e-06
 Reference value :  6.75229e-06
 Reference value :  6.75299e-06
 Reference value :  6.75344e-06
 Reference value :  6.75397e-06
 Reference value :  6.75448e-06
 Reference value :  6.75502e-06
 Reference value :  6.75579e-06
 Reference value :  6.75661e-06
 Reference value :  6.76028e-06
 Reference value :  6.76987e-06
 Reference value :  6.80747e-06
 Reference value :  6.85759e-06
 Reference value :  6.95784e-06
 Reference value :  7.00000e-06
 Reference value :  7.00003e-06
 Reference value :  7.00010e-06
 Reference value :  7.00012e-06
 Reference value :  7.00022e-06
 Reference value :  7.00034e-06
 Reference value :  7.00083e-06
 Reference value :  7.00158e-06
 Reference value :  7.00201e-06
 Reference value :  7.00242e-06
 Reference value :  7.00289e-06
 Reference value :  7.00341e-06
 Reference value :  7.00396e-06
 Reference value :  7.00500e-06
 Reference value :  7.00631e-06
 Reference value :  7.00847e-06
 Reference value :  7.00997e-06
 Reference value :  7.01120e-06
 Reference value :  7.01223e-06
 Reference value :  7.01322e-06
 Reference value :  7.01428e-06
 Reference value :  7.01524e-06
 Reference value :  7.01736e-06
 Reference value :  7.02071e-06
 Reference value :  7.02867e-06
 Reference value :  7.04944e-06
 Reference value :  7.10891e-06
 Reference value :  7.15401e-06
 Reference value :  7.25010e-06
 Reference value :  7.25013e-06
 Reference value :  7.25020e-06
 Reference value :  7.25022e-06
 Reference value :  7.25032e-06
 Reference value :  7.25069e-06
 Reference value :  7.25140e-06
 Reference value :  7.25229e-06
 Reference value :  7.25299e-06
 Reference value :  7.25345e-06
 Reference value :  7.25461e-06
 Reference value :  7.25524e-06
 Reference value :  7.25741e-06
 Reference value :  7.25889e-06
 Reference value :  7.26163e-06
 Reference value :  7.26521e-06
 Reference value :  7.28674e-06
 Reference value :  7.37284e-06
 Reference value :  7.48765e-06
 Reference value :  7.50000e-06
 Reference value :  7.50003e-06
 Reference value :  7.50007e-06
 Reference value :  7.50010e-06
 Reference value :  7.50012e-06
 Reference value :  7.50022e-06
 Reference value :  7.50034e-06
 Reference value :  7.50083e-06
 Reference value :  7.50158e-06
 Reference value :  7.50242e-06
 Reference value :  7.50289e-06
 Reference value :  7.50474e-06
 Reference value :  7.50615e-06
 Reference value :  7.50771e-06
 Reference value :  7.51245e-06
 Reference value :  7.64589e-06
 Reference value :  7.75020e-06
 Reference value :  7.75069e-06
 Reference value :  7.75186e-06
 Reference value :  7.75344e-06
 Reference value :  7.75501e-06
 Reference value :  7.75823e-06
 Reference value :  7.78230e-06
 Reference value :  8.00000e-06
 Reference value :  8.00010e-06
 Reference value :  8.00034e-06
 Reference value :  8.00158e-06
 Reference value :  8.00289e-06
 Reference value :  8.00502e-06
 Reference value :  8.00885e-06
 Reference value :  8.03655e-06
 Reference value :  8.25011e-06
 Reference value :  8.25026e-06
 Reference value :  8.25099e-06
 Reference value :  8.25228e-06
 Reference value :  8.25623e-06
 Reference value :  8.32174e-06
No. of Data Rows : 1236
ngspice-44 done
