
Note: Compatibility modes selected: hs a


Circuit: ** sch_path: /home/ece/cace/sar-adc-using-sky130-pdk/runs/run_2025-09-13_00-55-23/parameters/dnl/run_2/sar_output_dnl.sch

option SCALE: Scale is set to 1e-06 for instance and model parameters
option SCALE: Scale is set to 1e-06 for instance and model parameters
option SCALE: Scale is set to 1e-06 for instance and model parameters
option SCALE: Scale is set to 1e-06 for instance and model parameters
Doing analysis at TEMP = 27.000000 and TNOM = 27.000000

Using KLU as Direct Linear Solver
Operating point simulation skipped by 'uic',
  now using transient initial conditions.
 Reference value :  1.00000e-12
 Reference value :  1.19600e-12
 Reference value :  4.44329e-12
 Reference value :  2.07793e-11
 Reference value :  1.00000e-10
 Reference value :  1.16506e-10
 Reference value :  2.70562e-10
 Reference value :  6.82830e-10
 Reference value :  1.85064e-09
 Reference value :  4.07743e-09
 Reference value :  5.07448e-09
 Reference value :  6.78146e-09
 Reference value :  8.29768e-09
 Reference value :  1.13705e-08
 Reference value :  1.21790e-08
 Reference value :  1.37648e-08
 Reference value :  2.15274e-08
 Reference value :  2.78799e-08
 Reference value :  4.04830e-08
 Reference value :  9.43090e-08
 Reference value :  2.50100e-07
 Reference value :  2.50130e-07
 Reference value :  2.50208e-07
 Reference value :  2.50312e-07
 Reference value :  2.50957e-07
 Reference value :  2.51695e-07
 Reference value :  2.52676e-07
 Reference value :  2.53257e-07
 Reference value :  2.53738e-07
 Reference value :  2.54793e-07
 Reference value :  2.56198e-07
 Reference value :  2.58753e-07
 Reference value :  2.68441e-07
 Reference value :  2.80323e-07
 Reference value :  2.84695e-07
 Reference value :  2.94237e-07
 Reference value :  3.06259e-07
 Reference value :  3.31375e-07
 Reference value :  4.09460e-07
 Reference value :  5.00010e-07
 Reference value :  5.00100e-07
 Reference value :  5.00156e-07
 Reference value :  5.00338e-07
 Reference value :  5.01185e-07
 Reference value :  5.01931e-07
 Reference value :  5.02807e-07
 Reference value :  5.03884e-07
 Reference value :  5.05340e-07
 Reference value :  5.07729e-07
 Reference value :  5.08780e-07
 Reference value :  5.09918e-07
 Reference value :  5.11225e-07
 Reference value :  5.12468e-07
 Reference value :  5.15538e-07
 Reference value :  5.20631e-07
 Reference value :  5.33821e-07
 Reference value :  6.43756e-07
 Reference value :  7.50130e-07
 Reference value :  7.50200e-07
 Reference value :  7.50320e-07
 Reference value :  7.51397e-07
 Reference value :  7.52989e-07
 Reference value :  7.54479e-07
 Reference value :  7.55764e-07
 Reference value :  7.58274e-07
 Reference value :  7.60925e-07
 Reference value :  7.88218e-07
 Reference value :  9.85956e-07
 Reference value :  1.00003e-06
 Reference value :  1.00010e-06
 Reference value :  1.00022e-06
 Reference value :  1.00083e-06
 Reference value :  1.00157e-06
 Reference value :  1.00241e-06
 Reference value :  1.00340e-06
 Reference value :  1.00438e-06
 Reference value :  1.00481e-06
 Reference value :  1.00657e-06
 Reference value :  1.00748e-06
 Reference value :  1.00933e-06
 Reference value :  1.01027e-06
 Reference value :  1.01200e-06
 Reference value :  1.01359e-06
 Reference value :  1.01446e-06
 Reference value :  1.01630e-06
 Reference value :  1.01903e-06
 Reference value :  1.03064e-06
 Reference value :  1.09891e-06
 Reference value :  1.13214e-06
 Reference value :  1.16322e-06
 Reference value :  1.18300e-06
 Reference value :  1.21933e-06
 Reference value :  1.25011e-06
 Reference value :  1.25017e-06
 Reference value :  1.25026e-06
 Reference value :  1.25069e-06
 Reference value :  1.25140e-06
 Reference value :  1.25230e-06
 Reference value :  1.25300e-06
 Reference value :  1.25346e-06
 Reference value :  1.25469e-06
 Reference value :  1.25609e-06
 Reference value :  1.25915e-06
 Reference value :  1.27389e-06
 Reference value :  1.38525e-06
 Reference value :  1.50003e-06
 Reference value :  1.50011e-06
 Reference value :  1.50022e-06
 Reference value :  1.50052e-06
 Reference value :  1.50083e-06
 Reference value :  1.50158e-06
 Reference value :  1.50289e-06
 Reference value :  1.50474e-06
 Reference value :  1.50616e-06
 Reference value :  1.50771e-06
 Reference value :  1.50956e-06
 Reference value :  1.52064e-06
 Reference value :  1.58429e-06
 Reference value :  1.75011e-06
 Reference value :  1.75020e-06
 Reference value :  1.75032e-06
 Reference value :  1.75098e-06
 Reference value :  1.75186e-06
 Reference value :  1.75299e-06
 Reference value :  1.75397e-06
 Reference value :  1.75662e-06
 Reference value :  1.85916e-06
 Reference value :  2.00010e-06
 Reference value :  2.00034e-06
 Reference value :  2.00119e-06
 Reference value :  2.00201e-06
 Reference value :  2.00289e-06
 Reference value :  2.00396e-06
 Reference value :  2.00500e-06
 Reference value :  2.00631e-06
 Reference value :  2.00846e-06
 Reference value :  2.01120e-06
 Reference value :  2.01323e-06
 Reference value :  2.01626e-06
 Reference value :  2.02077e-06
 Reference value :  2.04983e-06
 Reference value :  2.12761e-06
 Reference value :  2.16134e-06
 Reference value :  2.19074e-06
 Reference value :  2.25011e-06
 Reference value :  2.25021e-06
 Reference value :  2.25045e-06
 Reference value :  2.25140e-06
 Reference value :  2.25299e-06
 Reference value :  2.25344e-06
 Reference value :  2.25454e-06
 Reference value :  2.25594e-06
 Reference value :  2.26142e-06
 Reference value :  2.28548e-06
 Reference value :  2.46492e-06
 Reference value :  2.50003e-06
 Reference value :  2.50010e-06
 Reference value :  2.50022e-06
 Reference value :  2.50052e-06
 Reference value :  2.50119e-06
 Reference value :  2.50154e-06
 Reference value :  2.50235e-06
 Reference value :  2.50282e-06
 Reference value :  2.50464e-06
 Reference value :  2.50598e-06
 Reference value :  2.50749e-06
 Reference value :  2.51029e-06
 Reference value :  2.51681e-06
 Reference value :  2.54877e-06
 Reference value :  2.75010e-06
 Reference value :  2.75017e-06
 Reference value :  2.75026e-06
 Reference value :  2.75069e-06
 Reference value :  2.75140e-06
 Reference value :  2.75299e-06
 Reference value :  2.75397e-06
 Reference value :  2.75580e-06
 Reference value :  2.75837e-06
 Reference value :  2.76368e-06
 Reference value :  2.77503e-06
 Reference value :  2.88100e-06
 Reference value :  3.00003e-06
 Reference value :  3.00012e-06
 Reference value :  3.00052e-06
 Reference value :  3.00158e-06
 Reference value :  3.00290e-06
 Reference value :  3.00390e-06
 Reference value :  3.00484e-06
 Reference value :  3.00664e-06
 Reference value :  3.00841e-06
 Reference value :  3.01016e-06
 Reference value :  3.01192e-06
 Reference value :  3.01357e-06
 Reference value :  3.01535e-06
 Reference value :  3.01739e-06
 Reference value :  3.02297e-06
 Reference value :  3.02586e-06
 Reference value :  3.03103e-06
 Reference value :  3.04372e-06
 Reference value :  3.07739e-06
 Reference value :  3.16899e-06
 Reference value :  3.25011e-06
 Reference value :  3.25020e-06
 Reference value :  3.25032e-06
 Reference value :  3.25140e-06
 Reference value :  3.25299e-06
 Reference value :  3.25399e-06
 Reference value :  3.25524e-06
 Reference value :  3.25889e-06
 Reference value :  3.27243e-06
 Reference value :  3.37319e-06
 Reference value :  3.50003e-06
 Reference value :  3.50011e-06
 Reference value :  3.50022e-06
 Reference value :  3.50083e-06
 Reference value :  3.50158e-06
 Reference value :  3.50290e-06
 Reference value :  3.50474e-06
 Reference value :  3.50616e-06
 Reference value :  3.50771e-06
 Reference value :  3.51086e-06
 Reference value :  3.52996e-06
 Reference value :  3.75010e-06
 Reference value :  3.75017e-06
 Reference value :  3.75026e-06
 Reference value :  3.75098e-06
 Reference value :  3.75229e-06
 Reference value :  3.75344e-06
 Reference value :  3.75502e-06
 Reference value :  3.75660e-06
 Reference value :  3.76984e-06
 Reference value :  4.00000e-06
 Reference value :  4.00010e-06
 Reference value :  4.00016e-06
 Reference value :  4.00052e-06
 Reference value :  4.00158e-06
 Reference value :  4.00289e-06
 Reference value :  4.00450e-06
 Reference value :  4.00554e-06
 Reference value :  4.00847e-06
 Reference value :  4.01120e-06
 Reference value :  4.01323e-06
 Reference value :  4.01524e-06
 Reference value :  4.01912e-06
 Reference value :  4.02878e-06
 Reference value :  4.07076e-06
 Reference value :  4.11459e-06
 Reference value :  4.25010e-06
 Reference value :  4.25017e-06
 Reference value :  4.25022e-06
 Reference value :  4.25045e-06
 Reference value :  4.25098e-06
 Reference value :  4.25140e-06
 Reference value :  4.25229e-06
 Reference value :  4.25345e-06
 Reference value :  4.25461e-06
 Reference value :  4.25741e-06
 Reference value :  4.26523e-06
 Reference value :  4.31560e-06
 Reference value :  4.50001e-06
 Reference value :  4.50007e-06
 Reference value :  4.50011e-06
 Reference value :  4.50016e-06
 Reference value :  4.50022e-06
 Reference value :  4.50052e-06
 Reference value :  4.50119e-06
 Reference value :  4.50158e-06
 Reference value :  4.50242e-06
 Reference value :  4.50290e-06
 Reference value :  4.50342e-06
 Reference value :  4.50553e-06
 Reference value :  4.50616e-06
 Reference value :  4.50771e-06
 Reference value :  4.50956e-06
 Reference value :  4.51553e-06
 Reference value :  4.65552e-06
 Reference value :  4.75013e-06
 Reference value :  4.75022e-06
 Reference value :  4.75045e-06
 Reference value :  4.75098e-06
 Reference value :  4.75186e-06
 Reference value :  4.75299e-06
 Reference value :  4.75397e-06
 Reference value :  4.75502e-06
 Reference value :  4.75661e-06
 Reference value :  4.76362e-06
 Reference value :  4.80754e-06
 Reference value :  5.00000e-06
 Reference value :  5.00007e-06
 Reference value :  5.00011e-06
 Reference value :  5.00022e-06
 Reference value :  5.00083e-06
 Reference value :  5.00158e-06
 Reference value :  5.00242e-06
 Reference value :  5.00341e-06
 Reference value :  5.00450e-06
 Reference value :  5.00554e-06
 Reference value :  5.00847e-06
 Reference value :  5.01120e-06
 Reference value :  5.01223e-06
 Reference value :  5.01428e-06
 Reference value :  5.01524e-06
 Reference value :  5.01737e-06
 Reference value :  5.02876e-06
 Reference value :  5.06540e-06
 Reference value :  5.15248e-06
 Reference value :  5.25011e-06
 Reference value :  5.25020e-06
 Reference value :  5.25026e-06
 Reference value :  5.25069e-06
 Reference value :  5.25140e-06
 Reference value :  5.25299e-06
 Reference value :  5.25398e-06
 Reference value :  5.25523e-06
 Reference value :  5.25888e-06
 Reference value :  5.28668e-06
 Reference value :  5.50000e-06
 Reference value :  5.50007e-06
 Reference value :  5.50016e-06
 Reference value :  5.50052e-06
 Reference value :  5.50119e-06
 Reference value :  5.50201e-06
 Reference value :  5.50290e-06
 Reference value :  5.50474e-06
 Reference value :  5.50616e-06
 Reference value :  5.50865e-06
 Reference value :  5.52053e-06
 Reference value :  5.65426e-06
 Reference value :  5.75013e-06
 Reference value :  5.75026e-06
 Reference value :  5.75098e-06
 Reference value :  5.75186e-06
 Reference value :  5.75299e-06
 Reference value :  5.75397e-06
 Reference value :  5.75502e-06
 Reference value :  5.75661e-06
 Reference value :  5.78241e-06
 Reference value :  5.95789e-06
 Reference value :  6.00003e-06
 Reference value :  6.00010e-06
 Reference value :  6.00012e-06
 Reference value :  6.00016e-06
 Reference value :  6.00034e-06
 Reference value :  6.00083e-06
 Reference value :  6.00158e-06
 Reference value :  6.00242e-06
 Reference value :  6.00341e-06
 Reference value :  6.00450e-06
 Reference value :  6.00631e-06
 Reference value :  6.00847e-06
 Reference value :  6.00997e-06
 Reference value :  6.01223e-06
 Reference value :  6.01526e-06
 Reference value :  6.01740e-06
 Reference value :  6.02078e-06
 Reference value :  6.02397e-06
 Reference value :  6.02877e-06
 Reference value :  6.05759e-06
 Reference value :  6.18412e-06
 Reference value :  6.25011e-06
 Reference value :  6.25017e-06
 Reference value :  6.25021e-06
 Reference value :  6.25026e-06
 Reference value :  6.25045e-06
 Reference value :  6.25098e-06
 Reference value :  6.25140e-06
 Reference value :  6.25229e-06
 Reference value :  6.25299e-06
 Reference value :  6.25398e-06
 Reference value :  6.25461e-06
 Reference value :  6.25741e-06
 Reference value :  6.27240e-06
 Reference value :  6.50001e-06
 Reference value :  6.50011e-06
 Reference value :  6.50034e-06
 Reference value :  6.50119e-06
 Reference value :  6.50201e-06
 Reference value :  6.50290e-06
 Reference value :  6.50474e-06
 Reference value :  6.50616e-06
 Reference value :  6.50771e-06
 Reference value :  6.50956e-06
 Reference value :  6.51550e-06
 Reference value :  6.54730e-06
 Reference value :  6.75011e-06
 Reference value :  6.75020e-06
 Reference value :  6.75022e-06
 Reference value :  6.75032e-06
 Reference value :  6.75069e-06
 Reference value :  6.75139e-06
 Reference value :  6.75229e-06
 Reference value :  6.75344e-06
 Reference value :  6.75397e-06
 Reference value :  6.75502e-06
 Reference value :  6.75579e-06
 Reference value :  6.75823e-06
 Reference value :  6.76361e-06
 Reference value :  6.78240e-06
 Reference value :  6.85756e-06
 Reference value :  7.00000e-06
 Reference value :  7.00007e-06
 Reference value :  7.00012e-06
 Reference value :  7.00052e-06
 Reference value :  7.00158e-06
 Reference value :  7.00289e-06
 Reference value :  7.00450e-06
 Reference value :  7.00631e-06
 Reference value :  7.01120e-06
 Reference value :  7.01428e-06
 Reference value :  7.01737e-06
 Reference value :  7.03624e-06
 Reference value :  7.17099e-06
 Reference value :  7.25013e-06
 Reference value :  7.25022e-06
 Reference value :  7.25045e-06
 Reference value :  7.25186e-06
 Reference value :  7.25345e-06
 Reference value :  7.25523e-06
 Reference value :  7.26161e-06
 Reference value :  7.37251e-06
 Reference value :  7.50003e-06
 Reference value :  7.50011e-06
 Reference value :  7.50022e-06
 Reference value :  7.50083e-06
 Reference value :  7.50158e-06
 Reference value :  7.50290e-06
 Reference value :  7.50399e-06
 Reference value :  7.50553e-06
 Reference value :  7.50616e-06
 Reference value :  7.50771e-06
 Reference value :  7.50955e-06
 Reference value :  7.52046e-06
 Reference value :  7.65174e-06
 Reference value :  7.75013e-06
 Reference value :  7.75021e-06
 Reference value :  7.75045e-06
 Reference value :  7.75139e-06
 Reference value :  7.75299e-06
 Reference value :  7.75397e-06
 Reference value :  7.75579e-06
 Reference value :  7.76359e-06
 Reference value :  7.80731e-06
 Reference value :  8.00000e-06
 Reference value :  8.00010e-06
 Reference value :  8.00022e-06
 Reference value :  8.00083e-06
 Reference value :  8.00201e-06
 Reference value :  8.00341e-06
 Reference value :  8.00503e-06
 Reference value :  8.00717e-06
 Reference value :  8.00982e-06
 Reference value :  8.06464e-06
 Reference value :  8.25011e-06
 Reference value :  8.25020e-06
 Reference value :  8.25032e-06
 Reference value :  8.25099e-06
 Reference value :  8.25139e-06
 Reference value :  8.25298e-06
 Reference value :  8.25535e-06
 Reference value :  8.25767e-06
 Reference value :  8.26625e-06
 Reference value :  8.29144e-06
 Reference value :  8.38214e-06
 Reference value :  8.50000e-06
 Reference value :  8.50000e-06
 Reference value :  8.50000e-06
 Reference value :  8.50002e-06
 Reference value :  8.50010e-06
 Reference value :  8.50012e-06
 Reference value :  8.50027e-06
 Reference value :  8.50115e-06
 Reference value :  8.50197e-06
 Reference value :  8.50292e-06
 Reference value :  8.50401e-06
 Reference value :  8.50495e-06
 Reference value :  8.50617e-06
 Reference value :  8.51731e-06
 Reference value :  8.52238e-06
 Reference value :  8.52627e-06
 Reference value :  8.52917e-06
 Reference value :  8.53096e-06
 Reference value :  8.53382e-06
 Reference value :  8.53555e-06
 Reference value :  8.53710e-06
 Reference value :  8.54097e-06
 Reference value :  8.55075e-06
 Reference value :  8.55820e-06
 Reference value :  8.57862e-06
 Reference value :  8.63620e-06
 Reference value :  8.70155e-06
 Reference value :  8.75011e-06
 Reference value :  8.75017e-06
 Reference value :  8.75021e-06
 Reference value :  8.75026e-06
 Reference value :  8.75069e-06
 Reference value :  8.75139e-06
 Reference value :  8.75229e-06
 Reference value :  8.75342e-06
 Reference value :  8.75456e-06
 Reference value :  8.75877e-06
 Reference value :  8.81294e-06
 Reference value :  8.92353e-06
 Reference value :  8.97901e-06
 Reference value :  9.00000e-06
 Reference value :  9.00010e-06
 Reference value :  9.00016e-06
 Reference value :  9.00052e-06
 Reference value :  9.00153e-06
 Reference value :  9.00280e-06
 Reference value :  9.00532e-06
 Reference value :  9.00642e-06
 Reference value :  9.00877e-06
 Reference value :  9.01120e-06
 Reference value :  9.01373e-06
 Reference value :  9.02057e-06
 Reference value :  9.08215e-06
 Reference value :  9.25013e-06
 Reference value :  9.25021e-06
 Reference value :  9.25032e-06
 Reference value :  9.25069e-06
 Reference value :  9.25139e-06
 Reference value :  9.25298e-06
 Reference value :  9.25395e-06
 Reference value :  9.25500e-06
 Reference value :  9.25575e-06
 Reference value :  9.25731e-06
 Reference value :  9.25948e-06
 Reference value :  9.26659e-06
 Reference value :  9.30807e-06
 Reference value :  9.44867e-06
 Reference value :  9.50001e-06
 Reference value :  9.50007e-06
 Reference value :  9.50011e-06
 Reference value :  9.50022e-06
 Reference value :  9.50052e-06
 Reference value :  9.50119e-06
 Reference value :  9.50200e-06
 Reference value :  9.50289e-06
 Reference value :  9.50388e-06
 Reference value :  9.50482e-06
 Reference value :  9.50588e-06
 Reference value :  9.50749e-06
 Reference value :  9.50932e-06
 Reference value :  9.51025e-06
 Reference value :  9.51198e-06
 Reference value :  9.51358e-06
 Reference value :  9.51628e-06
 Reference value :  9.52398e-06
 Reference value :  9.59164e-06
 Reference value :  9.62373e-06
 Reference value :  9.65590e-06
 Reference value :  9.67591e-06
 Reference value :  9.69275e-06
 Reference value :  9.70996e-06
 Reference value :  9.75011e-06
 Reference value :  9.75017e-06
 Reference value :  9.75021e-06
 Reference value :  9.75026e-06
 Reference value :  9.75045e-06
 Reference value :  9.75098e-06
 Reference value :  9.75186e-06
 Reference value :  9.75345e-06
 Reference value :  9.75460e-06
 Reference value :  9.75740e-06
 Reference value :  9.78659e-06
 Reference value :  1.00000e-05
 Reference value :  1.00001e-05
 Reference value :  1.00002e-05
 Reference value :  1.00008e-05
 Reference value :  1.00020e-05
 Reference value :  1.00029e-05
 Reference value :  1.00040e-05
 Reference value :  1.00055e-05
 Reference value :  1.00069e-05
 Reference value :  1.00087e-05
 Reference value :  1.00295e-05
 Reference value :  1.02501e-05
 Reference value :  1.02503e-05
 Reference value :  1.02510e-05
 Reference value :  1.02519e-05
 Reference value :  1.02530e-05
 Reference value :  1.02534e-05
 Reference value :  1.02550e-05
 Reference value :  1.02582e-05
 Reference value :  1.02824e-05
 Reference value :  1.05000e-05
 Reference value :  1.05001e-05
 Reference value :  1.05001e-05
 Reference value :  1.05003e-05
 Reference value :  1.05012e-05
 Reference value :  1.05020e-05
 Reference value :  1.05029e-05
 Reference value :  1.05040e-05
 Reference value :  1.05050e-05
 Reference value :  1.05071e-05
 Reference value :  1.05112e-05
 Reference value :  1.05132e-05
 Reference value :  1.05152e-05
 Reference value :  1.05208e-05
 Reference value :  1.05502e-05
 Reference value :  1.06250e-05
 Reference value :  1.06594e-05
 Reference value :  1.06782e-05
 Reference value :  1.07395e-05
 Reference value :  1.07502e-05
 Reference value :  1.07503e-05
 Reference value :  1.07504e-05
 Reference value :  1.07510e-05
 Reference value :  1.07514e-05
 Reference value :  1.07530e-05
 Reference value :  1.07539e-05
 Reference value :  1.07559e-05
 Reference value :  1.07648e-05
 Reference value :  1.09608e-05
 Reference value :  1.10001e-05
 Reference value :  1.10001e-05
 Reference value :  1.10003e-05
 Reference value :  1.10012e-05
 Reference value :  1.10023e-05
 Reference value :  1.10033e-05
 Reference value :  1.10046e-05
 Reference value :  1.10060e-05
 Reference value :  1.10075e-05
 Reference value :  1.10103e-05
 Reference value :  1.10167e-05
 Reference value :  1.10475e-05
 Reference value :  1.12501e-05
 Reference value :  1.12502e-05
 Reference value :  1.12503e-05
 Reference value :  1.12510e-05
 Reference value :  1.12519e-05
 Reference value :  1.12530e-05
 Reference value :  1.12534e-05
 Reference value :  1.12545e-05
 Reference value :  1.12558e-05
 Reference value :  1.12575e-05
 Reference value :  1.12596e-05
 Reference value :  1.12674e-05
 Reference value :  1.13199e-05
 Reference value :  1.15000e-05
 Reference value :  1.15001e-05
 Reference value :  1.15002e-05
 Reference value :  1.15003e-05
 Reference value :  1.15012e-05
 Reference value :  1.15020e-05
 Reference value :  1.15029e-05
 Reference value :  1.15044e-05
 Reference value :  1.15059e-05
 Reference value :  1.15084e-05
 Reference value :  1.15102e-05
 Reference value :  1.15119e-05
 Reference value :  1.15145e-05
 Reference value :  1.15177e-05
 Reference value :  1.15215e-05
 Reference value :  1.15245e-05
 Reference value :  1.15348e-05
 Reference value :  1.15622e-05
 Reference value :  1.16634e-05
 Reference value :  1.17502e-05
 Reference value :  1.17503e-05
 Reference value :  1.17514e-05
 Reference value :  1.17530e-05
 Reference value :  1.17540e-05
 Reference value :  1.17552e-05
 Reference value :  1.17589e-05
 Reference value :  1.17866e-05
 Reference value :  1.20000e-05
 Reference value :  1.20001e-05
 Reference value :  1.20001e-05
 Reference value :  1.20003e-05
 Reference value :  1.20008e-05
 Reference value :  1.20016e-05
 Reference value :  1.20024e-05
 Reference value :  1.20034e-05
 Reference value :  1.20055e-05
 Reference value :  1.20069e-05
 Reference value :  1.20087e-05
 Reference value :  1.20205e-05
 Reference value :  1.21537e-05
 Reference value :  1.22501e-05
 Reference value :  1.22502e-05
 Reference value :  1.22503e-05
 Reference value :  1.22510e-05
 Reference value :  1.22519e-05
 Reference value :  1.22530e-05
 Reference value :  1.22534e-05
 Reference value :  1.22545e-05
 Reference value :  1.22558e-05
 Reference value :  1.22603e-05
 Reference value :  1.23070e-05
 Reference value :  1.25000e-05
 Reference value :  1.25001e-05
 Reference value :  1.25002e-05
 Reference value :  1.25003e-05
 Reference value :  1.25008e-05
 Reference value :  1.25016e-05
 Reference value :  1.25029e-05
 Reference value :  1.25045e-05
 Reference value :  1.25055e-05
 Reference value :  1.25085e-05
 Reference value :  1.25112e-05
 Reference value :  1.25132e-05
 Reference value :  1.25143e-05
 Reference value :  1.25152e-05
 Reference value :  1.25174e-05
 Reference value :  1.25239e-05
 Reference value :  1.25495e-05
 Reference value :  1.25964e-05
 Reference value :  1.26660e-05
 Reference value :  1.27501e-05
 Reference value :  1.27502e-05
 Reference value :  1.27504e-05
 Reference value :  1.27514e-05
 Reference value :  1.27530e-05
 Reference value :  1.27540e-05
 Reference value :  1.27552e-05
 Reference value :  1.27616e-05
 Reference value :  1.28154e-05
 Reference value :  1.30000e-05
 Reference value :  1.30001e-05
 Reference value :  1.30003e-05
 Reference value :  1.30008e-05
 Reference value :  1.30016e-05
 Reference value :  1.30029e-05
 Reference value :  1.30040e-05
 Reference value :  1.30055e-05
 Reference value :  1.30062e-05
 Reference value :  1.30077e-05
 Reference value :  1.30096e-05
 Reference value :  1.30155e-05
 Reference value :  1.30471e-05
 Reference value :  1.32501e-05
 Reference value :  1.32502e-05
 Reference value :  1.32503e-05
 Reference value :  1.32510e-05
 Reference value :  1.32519e-05
 Reference value :  1.32530e-05
 Reference value :  1.32540e-05
 Reference value :  1.32558e-05
 Reference value :  1.32824e-05
 Reference value :  1.35000e-05
 Reference value :  1.35002e-05
 Reference value :  1.35008e-05
 Reference value :  1.35024e-05
 Reference value :  1.35040e-05
 Reference value :  1.35055e-05
 Reference value :  1.35100e-05
 Reference value :  1.35122e-05
 Reference value :  1.35152e-05
 Reference value :  1.35207e-05
 Reference value :  1.36058e-05
 Reference value :  1.37501e-05
 Reference value :  1.37502e-05
 Reference value :  1.37510e-05
 Reference value :  1.37523e-05
 Reference value :  1.37535e-05
 Reference value :  1.37552e-05
 Reference value :  1.37724e-05
 Reference value :  1.40000e-05
 Reference value :  1.40001e-05
 Reference value :  1.40002e-05
 Reference value :  1.40008e-05
 Reference value :  1.40020e-05
 Reference value :  1.40034e-05
 Reference value :  1.40062e-05
 Reference value :  1.40087e-05
 Reference value :  1.40205e-05
 Reference value :  1.41523e-05
 Reference value :  1.42502e-05
 Reference value :  1.42504e-05
 Reference value :  1.42514e-05
 Reference value :  1.42530e-05
 Reference value :  1.42540e-05
 Reference value :  1.42558e-05
 Reference value :  1.42698e-05
 Reference value :  1.45000e-05
 Reference value :  1.45001e-05
 Reference value :  1.45005e-05
 Reference value :  1.45016e-05
 Reference value :  1.45029e-05
 Reference value :  1.45045e-05
 Reference value :  1.45063e-05
 Reference value :  1.45085e-05
 Reference value :  1.45112e-05
 Reference value :  1.45132e-05
 Reference value :  1.45153e-05
 Reference value :  1.45174e-05
 Reference value :  1.45239e-05
 Reference value :  1.45443e-05
 Reference value :  1.46272e-05
 Reference value :  1.47501e-05
 Reference value :  1.47502e-05
 Reference value :  1.47503e-05
 Reference value :  1.47510e-05
 Reference value :  1.47523e-05
 Reference value :  1.47535e-05
 Reference value :  1.47546e-05
 Reference value :  1.47574e-05
 Reference value :  1.47724e-05
 Reference value :  1.49880e-05
 Reference value :  1.50001e-05
 Reference value :  1.50001e-05
 Reference value :  1.50003e-05
 Reference value :  1.50012e-05
 Reference value :  1.50020e-05
 Reference value :  1.50029e-05
 Reference value :  1.50040e-05
 Reference value :  1.50055e-05
 Reference value :  1.50062e-05
 Reference value :  1.50077e-05
 Reference value :  1.50096e-05
 Reference value :  1.50155e-05
 Reference value :  1.50471e-05
 Reference value :  1.52501e-05
 Reference value :  1.52502e-05
 Reference value :  1.52502e-05
 Reference value :  1.52503e-05
 Reference value :  1.52510e-05
 Reference value :  1.52519e-05
 Reference value :  1.52530e-05
 Reference value :  1.52534e-05
 Reference value :  1.52545e-05
 Reference value :  1.52558e-05
 Reference value :  1.52636e-05
 Reference value :  1.53073e-05
 Reference value :  1.55000e-05
 Reference value :  1.55007e-05
 Reference value :  1.55029e-05
 Reference value :  1.55043e-05
 Reference value :  1.55055e-05
 Reference value :  1.55079e-05
 Reference value :  1.55092e-05
 Reference value :  1.55120e-05
 Reference value :  1.55130e-05
 Reference value :  1.55151e-05
 Reference value :  1.55174e-05
 Reference value :  1.55206e-05
 Reference value :  1.55334e-05
 Reference value :  1.56062e-05
 Reference value :  1.57501e-05
 Reference value :  1.57501e-05
 Reference value :  1.57502e-05
 Reference value :  1.57502e-05
 Reference value :  1.57503e-05
 Reference value :  1.57510e-05
 Reference value :  1.57514e-05
 Reference value :  1.57523e-05
 Reference value :  1.57534e-05
 Reference value :  1.57545e-05
 Reference value :  1.57571e-05
 Reference value :  1.57704e-05
 Reference value :  1.60000e-05
 Reference value :  1.60001e-05
 Reference value :  1.60002e-05
 Reference value :  1.60008e-05
 Reference value :  1.60016e-05
 Reference value :  1.60029e-05
 Reference value :  1.60040e-05
 Reference value :  1.60055e-05
 Reference value :  1.60062e-05
 Reference value :  1.60077e-05
 Reference value :  1.60109e-05
 Reference value :  1.60292e-05
 Reference value :  1.62501e-05
 Reference value :  1.62502e-05
 Reference value :  1.62503e-05
 Reference value :  1.62507e-05
 Reference value :  1.62514e-05
 Reference value :  1.62530e-05
 Reference value :  1.62540e-05
 Reference value :  1.62550e-05
 Reference value :  1.62566e-05
 Reference value :  1.62699e-05
 Reference value :  1.64590e-05
 Reference value :  1.65000e-05
 Reference value :  1.65001e-05
 Reference value :  1.65003e-05
 Reference value :  1.65012e-05
 Reference value :  1.65016e-05
 Reference value :  1.65024e-05
 Reference value :  1.65029e-05
 Reference value :  1.65040e-05
 Reference value :  1.65050e-05
 Reference value :  1.65064e-05
 Reference value :  1.65088e-05
 Reference value :  1.65226e-05
 Reference value :  1.66206e-05
 Reference value :  1.67501e-05
 Reference value :  1.67502e-05
 Reference value :  1.67504e-05
 Reference value :  1.67514e-05
 Reference value :  1.67530e-05
 Reference value :  1.67553e-05
 Reference value :  1.67592e-05
 Reference value :  1.67749e-05
 Reference value :  1.68821e-05
 Reference value :  1.70000e-05
 Reference value :  1.70000e-05
 Reference value :  1.70000e-05
 Reference value :  1.70000e-05
 Reference value :  1.70001e-05
 Reference value :  1.70001e-05
 Reference value :  1.70003e-05
 Reference value :  1.70007e-05
 Reference value :  1.70012e-05
 Reference value :  1.70020e-05
 Reference value :  1.70029e-05
 Reference value :  1.70040e-05
 Reference value :  1.70045e-05
 Reference value :  1.70055e-05
 Reference value :  1.70090e-05
 Reference value :  1.70224e-05
 Reference value :  1.70263e-05
 Reference value :  1.70292e-05
 Reference value :  1.70312e-05
 Reference value :  1.70347e-05
 Reference value :  1.70357e-05
 Reference value :  1.70377e-05
 Reference value :  1.70410e-05
 Reference value :  1.70467e-05
 Reference value :  1.70536e-05
 Reference value :  1.70644e-05
 Reference value :  1.70842e-05
 Reference value :  1.71209e-05
 Reference value :  1.71770e-05
 Reference value :  1.72501e-05
 Reference value :  1.72501e-05
 Reference value :  1.72502e-05
 Reference value :  1.72503e-05
 Reference value :  1.72510e-05
 Reference value :  1.72514e-05
 Reference value :  1.72523e-05
 Reference value :  1.72534e-05
 Reference value :  1.72546e-05
 Reference value :  1.72573e-05
 Reference value :  1.72649e-05
 Reference value :  1.73129e-05
 Reference value :  1.74201e-05
 Reference value :  1.74577e-05
 Reference value :  1.74740e-05
 Reference value :  1.74882e-05
 Reference value :  1.75000e-05
 Reference value :  1.75001e-05
 Reference value :  1.75003e-05
 Reference value :  1.75012e-05
 Reference value :  1.75019e-05
 Reference value :  1.75028e-05
 Reference value :  1.75046e-05
 Reference value :  1.75077e-05
 Reference value :  1.75099e-05
 Reference value :  1.75124e-05
 Reference value :  1.75206e-05
 Reference value :  1.77501e-05
 Reference value :  1.77502e-05
 Reference value :  1.77507e-05
 Reference value :  1.77514e-05
 Reference value :  1.77530e-05
 Reference value :  1.77540e-05
 Reference value :  1.77550e-05
 Reference value :  1.77565e-05
 Reference value :  1.77595e-05
 Reference value :  1.78078e-05
 Reference value :  1.80009e-05
 Reference value :  1.80036e-05
 Reference value :  1.80061e-05
 Reference value :  1.80098e-05
 Reference value :  1.80125e-05
 Reference value :  1.80150e-05
 Reference value :  1.80170e-05
 Reference value :  1.80221e-05
 Reference value :  1.80486e-05
 Reference value :  1.81075e-05
 Reference value :  1.81359e-05
 Reference value :  1.81727e-05
 Reference value :  1.82111e-05
 Reference value :  1.82501e-05
 Reference value :  1.82502e-05
 Reference value :  1.82504e-05
 Reference value :  1.82514e-05
 Reference value :  1.82523e-05
 Reference value :  1.82534e-05
 Reference value :  1.82549e-05
 Reference value :  1.82604e-05
 Reference value :  1.83547e-05
 Reference value :  1.85000e-05
 Reference value :  1.85002e-05
 Reference value :  1.85005e-05
 Reference value :  1.85016e-05
 Reference value :  1.85029e-05
 Reference value :  1.85047e-05
 Reference value :  1.85062e-05
 Reference value :  1.85087e-05
 Reference value :  1.85155e-05
 Reference value :  1.85829e-05
 Reference value :  1.87501e-05
 Reference value :  1.87502e-05
 Reference value :  1.87503e-05
 Reference value :  1.87507e-05
 Reference value :  1.87514e-05
 Reference value :  1.87530e-05
 Reference value :  1.87540e-05
 Reference value :  1.87550e-05
 Reference value :  1.87566e-05
 Reference value :  1.87636e-05
 Reference value :  1.88584e-05
 Reference value :  1.90000e-05
 Reference value :  1.90001e-05
 Reference value :  1.90002e-05
 Reference value :  1.90008e-05
 Reference value :  1.90016e-05
 Reference value :  1.90024e-05
 Reference value :  1.90034e-05
 Reference value :  1.90050e-05
 Reference value :  1.90071e-05
 Reference value :  1.90112e-05
 Reference value :  1.90143e-05
 Reference value :  1.90163e-05
 Reference value :  1.90240e-05
 Reference value :  1.90502e-05
 Reference value :  1.91260e-05
 Reference value :  1.91613e-05
 Reference value :  1.91807e-05
 Reference value :  1.92501e-05
 Reference value :  1.92502e-05
 Reference value :  1.92504e-05
 Reference value :  1.92514e-05
 Reference value :  1.92530e-05
 Reference value :  1.92545e-05
 Reference value :  1.92614e-05
 Reference value :  1.94579e-05
 Reference value :  1.95007e-05
 Reference value :  1.95029e-05
 Reference value :  1.95044e-05
 Reference value :  1.95069e-05
 Reference value :  1.95098e-05
 Reference value :  1.95144e-05
 Reference value :  1.95873e-05
 Reference value :  1.97502e-05
 Reference value :  1.97503e-05
 Reference value :  1.97514e-05
 Reference value :  1.97529e-05
 Reference value :  1.97534e-05
 Reference value :  1.97544e-05
 Reference value :  1.97557e-05
 Reference value :  1.97581e-05
 Reference value :  1.97632e-05
 Reference value :  1.98001e-05
 Reference value :  2.00000e-05
 Reference value :  2.00001e-05
 Reference value :  2.00001e-05
 Reference value :  2.00003e-05
 Reference value :  2.00012e-05
 Reference value :  2.00020e-05
 Reference value :  2.00029e-05
 Reference value :  2.00039e-05
 Reference value :  2.00048e-05
 Reference value :  2.00066e-05
 Reference value :  2.00084e-05
 Reference value :  2.00102e-05
 Reference value :  2.00119e-05
 Reference value :  2.00137e-05
 Reference value :  2.00155e-05
 Reference value :  2.00166e-05
 Reference value :  2.00177e-05
 Reference value :  2.00186e-05
 Reference value :  2.00208e-05
 Reference value :  2.00256e-05
 Reference value :  2.00364e-05
 Reference value :  2.00508e-05
 Reference value :  2.00658e-05
 Reference value :  2.01320e-05
 Reference value :  2.02501e-05
 Reference value :  2.02502e-05
 Reference value :  2.02504e-05
 Reference value :  2.02514e-05
 Reference value :  2.02530e-05
 Reference value :  2.02540e-05
 Reference value :  2.02552e-05
 Reference value :  2.02589e-05
 Reference value :  2.02866e-05
 Reference value :  2.05000e-05
 Reference value :  2.05002e-05
 Reference value :  2.05009e-05
 Reference value :  2.05019e-05
 Reference value :  2.05034e-05
 Reference value :  2.05056e-05
 Reference value :  2.05071e-05
 Reference value :  2.05096e-05
 Reference value :  2.05228e-05
 Reference value :  2.07037e-05
 Reference value :  2.07502e-05
 Reference value :  2.07503e-05
 Reference value :  2.07507e-05
 Reference value :  2.07514e-05
 Reference value :  2.07530e-05
 Reference value :  2.07540e-05
 Reference value :  2.07558e-05
 Reference value :  2.07602e-05
 Reference value :  2.08068e-05
 Reference value :  2.10000e-05
 Reference value :  2.10001e-05
 Reference value :  2.10005e-05
 Reference value :  2.10016e-05
 Reference value :  2.10029e-05
 Reference value :  2.10050e-05
 Reference value :  2.10085e-05
 Reference value :  2.10122e-05
 Reference value :  2.10152e-05
 Reference value :  2.10239e-05
 Reference value :  2.10947e-05
 Reference value :  2.11383e-05
 Reference value :  2.12501e-05
 Reference value :  2.12502e-05
 Reference value :  2.12502e-05
 Reference value :  2.12504e-05
 Reference value :  2.12510e-05
 Reference value :  2.12514e-05
 Reference value :  2.12523e-05
 Reference value :  2.12535e-05
 Reference value :  2.12546e-05
 Reference value :  2.12560e-05
 Reference value :  2.12616e-05
 Reference value :  2.12867e-05
 Reference value :  2.13728e-05
 Reference value :  2.15000e-05
 Reference value :  2.15001e-05
 Reference value :  2.15002e-05
 Reference value :  2.15003e-05
 Reference value :  2.15012e-05
 Reference value :  2.15020e-05
 Reference value :  2.15029e-05
 Reference value :  2.15047e-05
 Reference value :  2.15062e-05
 Reference value :  2.15077e-05
 Reference value :  2.15096e-05
 Reference value :  2.15125e-05
 Reference value :  2.15295e-05
 Reference value :  2.16524e-05
 Reference value :  2.17501e-05
 Reference value :  2.17502e-05
 Reference value :  2.17503e-05
 Reference value :  2.17510e-05
 Reference value :  2.17519e-05
 Reference value :  2.17534e-05
 Reference value :  2.17550e-05
 Reference value :  2.17582e-05
 Reference value :  2.17824e-05
 Reference value :  2.19574e-05
 Reference value :  2.20007e-05
 Reference value :  2.20029e-05
 Reference value :  2.20042e-05
 Reference value :  2.20055e-05
 Reference value :  2.20078e-05
 Reference value :  2.20092e-05
 Reference value :  2.20119e-05
 Reference value :  2.20129e-05
 Reference value :  2.20160e-05
 Reference value :  2.20204e-05
 Reference value :  2.20432e-05
 Reference value :  2.20908e-05
 Reference value :  2.22088e-05
 Reference value :  2.22501e-05
 Reference value :  2.22502e-05
 Reference value :  2.22504e-05
 Reference value :  2.22514e-05
 Reference value :  2.22529e-05
 Reference value :  2.22539e-05
 Reference value :  2.22551e-05
 Reference value :  2.22584e-05
 Reference value :  2.22829e-05
 Reference value :  2.24584e-05
 Reference value :  2.25000e-05
 Reference value :  2.25001e-05
 Reference value :  2.25002e-05
 Reference value :  2.25003e-05
 Reference value :  2.25008e-05
 Reference value :  2.25016e-05
 Reference value :  2.25024e-05
 Reference value :  2.25029e-05
 Reference value :  2.25040e-05
 Reference value :  2.25055e-05
 Reference value :  2.25062e-05
 Reference value :  2.25077e-05
 Reference value :  2.25095e-05
 Reference value :  2.25203e-05
 Reference value :  2.26463e-05
 Reference value :  2.27502e-05
 Reference value :  2.27503e-05
 Reference value :  2.27507e-05
 Reference value :  2.27514e-05
 Reference value :  2.27523e-05
 Reference value :  2.27530e-05
 Reference value :  2.27534e-05
 Reference value :  2.27545e-05
 Reference value :  2.27558e-05
 Reference value :  2.27603e-05
 Reference value :  2.28078e-05
 Reference value :  2.30000e-05
 Reference value :  2.30007e-05
 Reference value :  2.30028e-05
 Reference value :  2.30041e-05
 Reference value :  2.30052e-05
 Reference value :  2.30072e-05
 Reference value :  2.30101e-05
 Reference value :  2.30113e-05
 Reference value :  2.30124e-05
 Reference value :  2.30146e-05
 Reference value :  2.30167e-05
 Reference value :  2.30196e-05
 Reference value :  2.30375e-05
 Reference value :  2.31334e-05
 Reference value :  2.32501e-05
 Reference value :  2.32502e-05
 Reference value :  2.32503e-05
 Reference value :  2.32510e-05
 Reference value :  2.32519e-05
 Reference value :  2.32534e-05
 Reference value :  2.32545e-05
 Reference value :  2.32613e-05
 Reference value :  2.34630e-05
 Reference value :  2.35001e-05
 Reference value :  2.35001e-05
 Reference value :  2.35003e-05
 Reference value :  2.35016e-05
 Reference value :  2.35029e-05
 Reference value :  2.35040e-05
 Reference value :  2.35055e-05
 Reference value :  2.35062e-05
 Reference value :  2.35077e-05
 Reference value :  2.35095e-05
 Reference value :  2.35202e-05
 Reference value :  2.36434e-05
 Reference value :  2.37501e-05
 Reference value :  2.37502e-05
 Reference value :  2.37503e-05
 Reference value :  2.37504e-05
 Reference value :  2.37510e-05
 Reference value :  2.37514e-05
 Reference value :  2.37523e-05
 Reference value :  2.37530e-05
 Reference value :  2.37534e-05
 Reference value :  2.37545e-05
 Reference value :  2.37558e-05
 Reference value :  2.37602e-05
 Reference value :  2.38068e-05
 Reference value :  2.40000e-05
 Reference value :  2.40001e-05
 Reference value :  2.40001e-05
 Reference value :  2.40003e-05
 Reference value :  2.40008e-05
 Reference value :  2.40016e-05
 Reference value :  2.40024e-05
 Reference value :  2.40034e-05
 Reference value :  2.40045e-05
 Reference value :  2.40050e-05
 Reference value :  2.40071e-05
 Reference value :  2.40100e-05
 Reference value :  2.40112e-05
 Reference value :  2.40122e-05
 Reference value :  2.40152e-05
 Reference value :  2.40191e-05
 Reference value :  2.40362e-05
 Reference value :  2.41852e-05
 Reference value :  2.42501e-05
 Reference value :  2.42502e-05
 Reference value :  2.42507e-05
 Reference value :  2.42514e-05
 Reference value :  2.42523e-05
 Reference value :  2.42534e-05
 Reference value :  2.42546e-05
 Reference value :  2.42560e-05
 Reference value :  2.42616e-05
 Reference value :  2.42867e-05
 Reference value :  2.44873e-05
 Reference value :  2.45000e-05
 Reference value :  2.45001e-05
 Reference value :  2.45001e-05
 Reference value :  2.45002e-05
 Reference value :  2.45005e-05
 Reference value :  2.45012e-05
 Reference value :  2.45016e-05
 Reference value :  2.45024e-05
 Reference value :  2.45029e-05
 Reference value :  2.45034e-05
 Reference value :  2.45047e-05
 Reference value :  2.45062e-05
 Reference value :  2.45077e-05
 Reference value :  2.45096e-05
 Reference value :  2.45155e-05
 Reference value :  2.45295e-05
 Reference value :  2.45820e-05
 Reference value :  2.47501e-05
 Reference value :  2.47502e-05
 Reference value :  2.47502e-05
 Reference value :  2.47504e-05
 Reference value :  2.47510e-05
 Reference value :  2.47519e-05
 Reference value :  2.47530e-05
 Reference value :  2.47534e-05
 Reference value :  2.47545e-05
 Reference value :  2.47558e-05
 Reference value :  2.47636e-05
 Reference value :  2.50000e-05
 Reference value :  2.50001e-05
 Reference value :  2.50003e-05
 Reference value :  2.50016e-05
 Reference value :  2.50034e-05
 Reference value :  2.50050e-05
 Reference value :  2.50079e-05
 Reference value :  2.50226e-05
 Reference value :  2.52501e-05
 Reference value :  2.52502e-05
 Reference value :  2.52507e-05
 Reference value :  2.52514e-05
 Reference value :  2.52530e-05
 Reference value :  2.52545e-05
 Reference value :  2.52562e-05
 Reference value :  2.52619e-05
 Reference value :  2.52914e-05
 Reference value :  2.55000e-05
 Reference value :  2.55000e-05
 Reference value :  2.55000e-05
 Reference value :  2.55000e-05
 Reference value :  2.55000e-05
 Reference value :  2.55001e-05
 Reference value :  2.55002e-05
 Reference value :  2.55007e-05
 Reference value :  2.55016e-05
 Reference value :  2.55024e-05
 Reference value :  2.55035e-05
 Reference value :  2.55045e-05
 Reference value :  2.55055e-05
 Reference value :  2.55120e-05
 Reference value :  2.55224e-05
 Reference value :  2.55263e-05
 Reference value :  2.55292e-05
 Reference value :  2.55333e-05
 Reference value :  2.55378e-05
 Reference value :  2.55457e-05
 Reference value :  2.55558e-05
 Reference value :  2.55866e-05
 Reference value :  2.56497e-05
 Reference value :  2.57501e-05
 Reference value :  2.57502e-05
 Reference value :  2.57502e-05
 Reference value :  2.57504e-05
 Reference value :  2.57510e-05
 Reference value :  2.57514e-05
 Reference value :  2.57523e-05
 Reference value :  2.57534e-05
 Reference value :  2.57546e-05
 Reference value :  2.57573e-05
 Reference value :  2.57649e-05
 Reference value :  2.57718e-05
 Reference value :  2.58678e-05
 Reference value :  2.59218e-05
 Reference value :  2.59601e-05
 Reference value :  2.59773e-05
 Reference value :  2.59917e-05
 Reference value :  2.60000e-05
 Reference value :  2.60001e-05
 Reference value :  2.60001e-05
 Reference value :  2.60002e-05
 Reference value :  2.60005e-05
 Reference value :  2.60015e-05
 Reference value :  2.60023e-05
 Reference value :  2.60033e-05
 Reference value :  2.60053e-05
 Reference value :  2.60077e-05
 Reference value :  2.60099e-05
 Reference value :  2.60124e-05
 Reference value :  2.60173e-05
 Reference value :  2.60821e-05
 Reference value :  2.62501e-05
 Reference value :  2.62502e-05
 Reference value :  2.62507e-05
 Reference value :  2.62514e-05
 Reference value :  2.62530e-05
 Reference value :  2.62540e-05
 Reference value :  2.62558e-05
 Reference value :  2.62582e-05
 Reference value :  2.62608e-05
 Reference value :  2.62846e-05
 Reference value :  2.65000e-05
 Reference value :  2.65009e-05
 Reference value :  2.65036e-05
 Reference value :  2.65053e-05
 Reference value :  2.65068e-05
 Reference value :  2.65088e-05
 Reference value :  2.65108e-05
 Reference value :  2.65126e-05
 Reference value :  2.65141e-05
 Reference value :  2.65158e-05
 Reference value :  2.65219e-05
 Reference value :  2.66063e-05
 Reference value :  2.66347e-05
 Reference value :  2.66575e-05
 Reference value :  2.66714e-05
 Reference value :  2.66970e-05
 Reference value :  2.67501e-05
 Reference value :  2.67502e-05
 Reference value :  2.67502e-05
 Reference value :  2.67504e-05
 Reference value :  2.67510e-05
 Reference value :  2.67514e-05
 Reference value :  2.67523e-05
 Reference value :  2.67534e-05
 Reference value :  2.67544e-05
 Reference value :  2.67568e-05
 Reference value :  2.67697e-05
 Reference value :  2.68553e-05
 Reference value :  2.70000e-05
 Reference value :  2.70001e-05
 Reference value :  2.70002e-05
 Reference value :  2.70003e-05
 Reference value :  2.70008e-05
 Reference value :  2.70016e-05
 Reference value :  2.70024e-05
 Reference value :  2.70034e-05
 Reference value :  2.70047e-05
 Reference value :  2.70062e-05
 Reference value :  2.70077e-05
 Reference value :  2.70096e-05
 Reference value :  2.70155e-05
 Reference value :  2.70474e-05
 Reference value :  2.72501e-05
 Reference value :  2.72502e-05
 Reference value :  2.72504e-05
 Reference value :  2.72514e-05
 Reference value :  2.72530e-05
 Reference value :  2.72540e-05
 Reference value :  2.72558e-05
 Reference value :  2.72603e-05
 Reference value :  2.72825e-05
 Reference value :  2.73579e-05
 Reference value :  2.75000e-05
 Reference value :  2.75000e-05
 Reference value :  2.75001e-05
 Reference value :  2.75002e-05
 Reference value :  2.75005e-05
 Reference value :  2.75012e-05
 Reference value :  2.75016e-05
 Reference value :  2.75024e-05
 Reference value :  2.75029e-05
 Reference value :  2.75040e-05
 Reference value :  2.75050e-05
 Reference value :  2.75071e-05
 Reference value :  2.75100e-05
 Reference value :  2.75112e-05
 Reference value :  2.75122e-05
 Reference value :  2.75143e-05
 Reference value :  2.75152e-05
 Reference value :  2.75174e-05
 Reference value :  2.75208e-05
 Reference value :  2.75365e-05
 Reference value :  2.75729e-05
 Reference value :  2.76271e-05
 Reference value :  2.76507e-05
 Reference value :  2.76630e-05
 Reference value :  2.76751e-05
 Reference value :  2.76834e-05
 Reference value :  2.77031e-05
 Reference value :  2.77501e-05
 Reference value :  2.77502e-05
 Reference value :  2.77502e-05
 Reference value :  2.77503e-05
 Reference value :  2.77510e-05
 Reference value :  2.77523e-05
 Reference value :  2.77534e-05
 Reference value :  2.77559e-05
 Reference value :  2.77648e-05
 Reference value :  2.80000e-05
 Reference value :  2.80008e-05
 Reference value :  2.80031e-05
 Reference value :  2.80047e-05
 Reference value :  2.80064e-05
 Reference value :  2.80089e-05
 Reference value :  2.80146e-05
 Reference value :  2.80924e-05
 Reference value :  2.82501e-05
 Reference value :  2.82502e-05
 Reference value :  2.82510e-05
 Reference value :  2.82523e-05
 Reference value :  2.82534e-05
 Reference value :  2.82549e-05
 Reference value :  2.82564e-05
 Reference value :  2.82594e-05
 Reference value :  2.82827e-05
 Reference value :  2.85000e-05
 Reference value :  2.85001e-05
 Reference value :  2.85003e-05
 Reference value :  2.85012e-05
 Reference value :  2.85024e-05
 Reference value :  2.85039e-05
 Reference value :  2.85053e-05
 Reference value :  2.85076e-05
 Reference value :  2.85093e-05
 Reference value :  2.85102e-05
 Reference value :  2.85119e-05
 Reference value :  2.85136e-05
 Reference value :  2.85154e-05
 Reference value :  2.85172e-05
 Reference value :  2.85212e-05
 Reference value :  2.85362e-05
 Reference value :  2.85576e-05
 Reference value :  2.86010e-05
 Reference value :  2.87402e-05
 Reference value :  2.87501e-05
 Reference value :  2.87502e-05
 Reference value :  2.87503e-05
 Reference value :  2.87507e-05
 Reference value :  2.87514e-05
 Reference value :  2.87523e-05
 Reference value :  2.87534e-05
 Reference value :  2.87552e-05
 Reference value :  2.87589e-05
 Reference value :  2.87723e-05
 Reference value :  2.88724e-05
 Reference value :  2.90002e-05
 Reference value :  2.90009e-05
 Reference value :  2.90015e-05
 Reference value :  2.90024e-05
 Reference value :  2.90034e-05
 Reference value :  2.90049e-05
 Reference value :  2.90066e-05
 Reference value :  2.90085e-05
 Reference value :  2.90106e-05
 Reference value :  2.90171e-05
 Reference value :  2.90313e-05
 Reference value :  2.90753e-05
 Reference value :  2.92377e-05
 Reference value :  2.92501e-05
 Reference value :  2.92502e-05
 Reference value :  2.92502e-05
 Reference value :  2.92503e-05
 Reference value :  2.92507e-05
 Reference value :  2.92514e-05
 Reference value :  2.92523e-05
 Reference value :  2.92530e-05
 Reference value :  2.92534e-05
 Reference value :  2.92540e-05
 Reference value :  2.92545e-05
 Reference value :  2.92558e-05
 Reference value :  2.92582e-05
 Reference value :  2.92636e-05
 Reference value :  2.93068e-05
 Reference value :  2.95000e-05
 Reference value :  2.95001e-05
 Reference value :  2.95002e-05
 Reference value :  2.95005e-05
 Reference value :  2.95012e-05
 Reference value :  2.95016e-05
 Reference value :  2.95024e-05
 Reference value :  2.95029e-05
 Reference value :  2.95040e-05
 Reference value :  2.95050e-05
 Reference value :  2.95071e-05
 Reference value :  2.95100e-05
 Reference value :  2.95112e-05
 Reference value :  2.95122e-05
 Reference value :  2.95143e-05
 Reference value :  2.95152e-05
 Reference value :  2.95174e-05
 Reference value :  2.95239e-05
 Reference value :  2.95495e-05
 Reference value :  2.95915e-05
 Reference value :  2.96619e-05
 Reference value :  2.97501e-05
 Reference value :  2.97502e-05
 Reference value :  2.97502e-05
 Reference value :  2.97504e-05
 Reference value :  2.97510e-05
 Reference value :  2.97514e-05
 Reference value :  2.97523e-05
 Reference value :  2.97530e-05
 Reference value :  2.97540e-05
 Reference value :  2.97552e-05
 Reference value :  2.97574e-05
 Reference value :  2.97652e-05
 Reference value :  2.98728e-05
 Reference value :  3.00000e-05
 Reference value :  3.00001e-05
 Reference value :  3.00003e-05
 Reference value :  3.00012e-05
 Reference value :  3.00024e-05
 Reference value :  3.00034e-05
 Reference value :  3.00055e-05
 Reference value :  3.00069e-05
 Reference value :  3.00087e-05
 Reference value :  3.00125e-05
 Reference value :  3.00295e-05
 Reference value :  3.02501e-05
 Reference value :  3.02502e-05
 Reference value :  3.02503e-05
 Reference value :  3.02507e-05
 Reference value :  3.02514e-05
 Reference value :  3.02530e-05
 Reference value :  3.02534e-05
 Reference value :  3.02545e-05
 Reference value :  3.02558e-05
 Reference value :  3.02636e-05
 Reference value :  3.04574e-05
 Reference value :  3.05007e-05
 Reference value :  3.05029e-05
 Reference value :  3.05042e-05
 Reference value :  3.05055e-05
 Reference value :  3.05078e-05
 Reference value :  3.05092e-05
 Reference value :  3.05119e-05
 Reference value :  3.05139e-05
 Reference value :  3.05172e-05
 Reference value :  3.05264e-05
 Reference value :  3.05563e-05
 Reference value :  3.06208e-05
 Reference value :  3.07196e-05
 Reference value :  3.07502e-05
 Reference value :  3.07503e-05
 Reference value :  3.07507e-05
 Reference value :  3.07514e-05
 Reference value :  3.07523e-05
 Reference value :  3.07529e-05
 Reference value :  3.07534e-05
 Reference value :  3.07545e-05
 Reference value :  3.07571e-05
 Reference value :  3.07704e-05
 Reference value :  3.08582e-05
 Reference value :  3.10000e-05
 Reference value :  3.10001e-05
 Reference value :  3.10001e-05
 Reference value :  3.10002e-05
 Reference value :  3.10003e-05
 Reference value :  3.10008e-05
 Reference value :  3.10016e-05
 Reference value :  3.10024e-05
 Reference value :  3.10029e-05
 Reference value :  3.10040e-05
 Reference value :  3.10055e-05
 Reference value :  3.10069e-05
 Reference value :  3.10077e-05
 Reference value :  3.10095e-05
 Reference value :  3.10154e-05
 Reference value :  3.10458e-05
 Reference value :  3.11463e-05
 Reference value :  3.12501e-05
 Reference value :  3.12502e-05
 Reference value :  3.12502e-05
 Reference value :  3.12503e-05
 Reference value :  3.12504e-05
 Reference value :  3.12510e-05
 Reference value :  3.12519e-05
 Reference value :  3.12530e-05
 Reference value :  3.12540e-05
 Reference value :  3.12545e-05
 Reference value :  3.12558e-05
 Reference value :  3.12699e-05
 Reference value :  3.15000e-05
 Reference value :  3.15001e-05
 Reference value :  3.15002e-05
 Reference value :  3.15005e-05
 Reference value :  3.15012e-05
 Reference value :  3.15016e-05
 Reference value :  3.15024e-05
 Reference value :  3.15029e-05
 Reference value :  3.15040e-05
 Reference value :  3.15050e-05
 Reference value :  3.15063e-05
 Reference value :  3.15100e-05
 Reference value :  3.15122e-05
 Reference value :  3.15143e-05
 Reference value :  3.15163e-05
 Reference value :  3.15208e-05
 Reference value :  3.15362e-05
 Reference value :  3.15830e-05
 Reference value :  3.17501e-05
 Reference value :  3.17502e-05
 Reference value :  3.17502e-05
 Reference value :  3.17504e-05
 Reference value :  3.17510e-05
 Reference value :  3.17519e-05
 Reference value :  3.17530e-05
 Reference value :  3.17535e-05
 Reference value :  3.17546e-05
 Reference value :  3.17574e-05
 Reference value :  3.17652e-05
 Reference value :  3.18155e-05
 Reference value :  3.20000e-05
 Reference value :  3.20001e-05
 Reference value :  3.20001e-05
 Reference value :  3.20003e-05
 Reference value :  3.20008e-05
 Reference value :  3.20016e-05
 Reference value :  3.20024e-05
 Reference value :  3.20034e-05
 Reference value :  3.20047e-05
 Reference value :  3.20062e-05
 Reference value :  3.20077e-05
 Reference value :  3.20109e-05
 Reference value :  3.20295e-05
 Reference value :  3.22501e-05
 Reference value :  3.22502e-05
 Reference value :  3.22503e-05
 Reference value :  3.22507e-05
 Reference value :  3.22514e-05
 Reference value :  3.22523e-05
 Reference value :  3.22534e-05
 Reference value :  3.22545e-05
 Reference value :  3.22558e-05
 Reference value :  3.22636e-05
 Reference value :  3.23572e-05
 Reference value :  3.25000e-05
 Reference value :  3.25002e-05
 Reference value :  3.25008e-05
 Reference value :  3.25020e-05
 Reference value :  3.25034e-05
 Reference value :  3.25050e-05
 Reference value :  3.25085e-05
 Reference value :  3.25122e-05
 Reference value :  3.25152e-05
 Reference value :  3.25207e-05
 Reference value :  3.25726e-05
 Reference value :  3.27501e-05
 Reference value :  3.27502e-05
 Reference value :  3.27507e-05
 Reference value :  3.27519e-05
 Reference value :  3.27530e-05
 Reference value :  3.27540e-05
 Reference value :  3.27560e-05
 Reference value :  3.27616e-05
 Reference value :  3.27867e-05
 Reference value :  3.29872e-05
 Reference value :  3.30000e-05
 Reference value :  3.30001e-05
 Reference value :  3.30002e-05
 Reference value :  3.30005e-05
 Reference value :  3.30012e-05
 Reference value :  3.30020e-05
 Reference value :  3.30029e-05
 Reference value :  3.30040e-05
 Reference value :  3.30055e-05
 Reference value :  3.30062e-05
 Reference value :  3.30077e-05
 Reference value :  3.30096e-05
 Reference value :  3.30155e-05
 Reference value :  3.30295e-05
 Reference value :  3.31523e-05
 Reference value :  3.32501e-05
 Reference value :  3.32502e-05
 Reference value :  3.32502e-05
 Reference value :  3.32503e-05
 Reference value :  3.32510e-05
 Reference value :  3.32523e-05
 Reference value :  3.32534e-05
 Reference value :  3.32545e-05
 Reference value :  3.32558e-05
 Reference value :  3.32603e-05
 Reference value :  3.32823e-05
 Reference value :  3.34566e-05
 Reference value :  3.35007e-05
 Reference value :  3.35022e-05
 Reference value :  3.35030e-05
 Reference value :  3.35043e-05
 Reference value :  3.35056e-05
 Reference value :  3.35070e-05
 Reference value :  3.35087e-05
 Reference value :  3.35096e-05
 Reference value :  3.35161e-05
 Reference value :  3.35332e-05
 Reference value :  3.35995e-05
 Reference value :  3.37501e-05
 Reference value :  3.37502e-05
 Reference value :  3.37503e-05
 Reference value :  3.37507e-05
 Reference value :  3.37514e-05
 Reference value :  3.37529e-05
 Reference value :  3.37545e-05
 Reference value :  3.37562e-05
 Reference value :  3.37590e-05
 Reference value :  3.37739e-05
 Reference value :  3.38876e-05
 Reference value :  3.40000e-05
 Reference value :  3.40000e-05
 Reference value :  3.40000e-05
 Reference value :  3.40001e-05
 Reference value :  3.40001e-05
 Reference value :  3.40004e-05
 Reference value :  3.40016e-05
 Reference value :  3.40024e-05
 Reference value :  3.40035e-05
 Reference value :  3.40045e-05
 Reference value :  3.40055e-05
 Reference value :  3.40120e-05
 Reference value :  3.40224e-05
 Reference value :  3.40263e-05
 Reference value :  3.40292e-05
 Reference value :  3.40342e-05
 Reference value :  3.40372e-05
 Reference value :  3.40456e-05
 Reference value :  3.40699e-05
 Reference value :  3.41383e-05
 Reference value :  3.42501e-05
 Reference value :  3.42502e-05
 Reference value :  3.42503e-05
 Reference value :  3.42507e-05
 Reference value :  3.42514e-05
 Reference value :  3.42523e-05
 Reference value :  3.42530e-05
 Reference value :  3.42534e-05
 Reference value :  3.42546e-05
 Reference value :  3.42588e-05
 Reference value :  3.43129e-05
 Reference value :  3.44218e-05
 Reference value :  3.44773e-05
 Reference value :  3.45000e-05
 Reference value :  3.45001e-05
 Reference value :  3.45002e-05
 Reference value :  3.45005e-05
 Reference value :  3.45012e-05
 Reference value :  3.45019e-05
 Reference value :  3.45028e-05
 Reference value :  3.45046e-05
 Reference value :  3.45064e-05
 Reference value :  3.45088e-05
 Reference value :  3.45112e-05
 Reference value :  3.45155e-05
 Reference value :  3.45499e-05
 Reference value :  3.47501e-05
 Reference value :  3.47502e-05
 Reference value :  3.47507e-05
 Reference value :  3.47514e-05
 Reference value :  3.47530e-05
 Reference value :  3.47540e-05
 Reference value :  3.47558e-05
 Reference value :  3.47595e-05
 Reference value :  3.48076e-05
 Reference value :  3.50000e-05
 Reference value :  3.50001e-05
 Reference value :  3.50002e-05
 Reference value :  3.50008e-05
 Reference value :  3.50016e-05
 Reference value :  3.50024e-05
 Reference value :  3.50034e-05
 Reference value :  3.50044e-05
 Reference value :  3.50059e-05
 Reference value :  3.50075e-05
 Reference value :  3.50102e-05
 Reference value :  3.50120e-05
 Reference value :  3.50136e-05
 Reference value :  3.50163e-05
 Reference value :  3.50300e-05
 Reference value :  3.51234e-05
 Reference value :  3.51752e-05
 Reference value :  3.52088e-05
 Reference value :  3.52501e-05
 Reference value :  3.52502e-05
 Reference value :  3.52503e-05
 Reference value :  3.52510e-05
 Reference value :  3.52519e-05
 Reference value :  3.52535e-05
 Reference value :  3.52546e-05
 Reference value :  3.52560e-05
 Reference value :  3.52616e-05
 Reference value :  3.52867e-05
 Reference value :  3.54870e-05
 Reference value :  3.55001e-05
 Reference value :  3.55001e-05
 Reference value :  3.55003e-05
 Reference value :  3.55012e-05
 Reference value :  3.55024e-05
 Reference value :  3.55034e-05
 Reference value :  3.55055e-05
 Reference value :  3.55069e-05
 Reference value :  3.55087e-05
 Reference value :  3.55125e-05
 Reference value :  3.55470e-05
 Reference value :  3.57501e-05
 Reference value :  3.57502e-05
 Reference value :  3.57504e-05
 Reference value :  3.57514e-05
 Reference value :  3.57523e-05
 Reference value :  3.57534e-05
 Reference value :  3.57545e-05
 Reference value :  3.57558e-05
 Reference value :  3.57603e-05
 Reference value :  3.57824e-05
 Reference value :  3.59574e-05
 Reference value :  3.60007e-05
 Reference value :  3.60029e-05
 Reference value :  3.60042e-05
 Reference value :  3.60055e-05
 Reference value :  3.60069e-05
 Reference value :  3.60092e-05
 Reference value :  3.60119e-05
 Reference value :  3.60139e-05
 Reference value :  3.60161e-05
 Reference value :  3.60205e-05
 Reference value :  3.60333e-05
 Reference value :  3.60910e-05
 Reference value :  3.61141e-05
 Reference value :  3.61391e-05
 Reference value :  3.61561e-05
 Reference value :  3.61682e-05
 Reference value :  3.61882e-05
 Reference value :  3.62501e-05
 Reference value :  3.62502e-05
 Reference value :  3.62502e-05
 Reference value :  3.62504e-05
 Reference value :  3.62510e-05
 Reference value :  3.62519e-05
 Reference value :  3.62529e-05
 Reference value :  3.62539e-05
 Reference value :  3.62559e-05
 Reference value :  3.62614e-05
 Reference value :  3.63106e-05
 Reference value :  3.65000e-05
 Reference value :  3.65001e-05
 Reference value :  3.65001e-05
 Reference value :  3.65005e-05
 Reference value :  3.65012e-05
 Reference value :  3.65019e-05
 Reference value :  3.65028e-05
 Reference value :  3.65046e-05
 Reference value :  3.65060e-05
 Reference value :  3.65075e-05
 Reference value :  3.65103e-05
 Reference value :  3.65318e-05
 Reference value :  3.66962e-05
 Reference value :  3.67501e-05
 Reference value :  3.67502e-05
 Reference value :  3.67504e-05
 Reference value :  3.67514e-05
 Reference value :  3.67530e-05
 Reference value :  3.67540e-05
 Reference value :  3.67550e-05
 Reference value :  3.67566e-05
 Reference value :  3.67699e-05
 Reference value :  3.68470e-05
 Reference value :  3.70000e-05
 Reference value :  3.70001e-05
 Reference value :  3.70001e-05
 Reference value :  3.70003e-05
 Reference value :  3.70008e-05
 Reference value :  3.70016e-05
 Reference value :  3.70029e-05
 Reference value :  3.70039e-05
 Reference value :  3.70050e-05
 Reference value :  3.70070e-05
 Reference value :  3.70099e-05
 Reference value :  3.70111e-05
 Reference value :  3.70122e-05
 Reference value :  3.70143e-05
 Reference value :  3.70153e-05
 Reference value :  3.70175e-05
 Reference value :  3.70191e-05
 Reference value :  3.70239e-05
 Reference value :  3.70292e-05
 Reference value :  3.70324e-05
 Reference value :  3.70372e-05
 Reference value :  3.70424e-05
 Reference value :  3.70515e-05
 Reference value :  3.70694e-05
 Reference value :  3.71238e-05
 Reference value :  3.72501e-05
 Reference value :  3.72502e-05
 Reference value :  3.72502e-05
 Reference value :  3.72504e-05
 Reference value :  3.72510e-05
 Reference value :  3.72514e-05
 Reference value :  3.72523e-05
 Reference value :  3.72530e-05
 Reference value :  3.72534e-05
 Reference value :  3.72545e-05
 Reference value :  3.72559e-05
 Reference value :  3.72614e-05
 Reference value :  3.73130e-05
 Reference value :  3.75000e-05
 Reference value :  3.75001e-05
 Reference value :  3.75001e-05
 Reference value :  3.75002e-05
 Reference value :  3.75005e-05
 Reference value :  3.75012e-05
 Reference value :  3.75019e-05
 Reference value :  3.75028e-05
 Reference value :  3.75039e-05
 Reference value :  3.75054e-05
 Reference value :  3.75060e-05
 Reference value :  3.75075e-05
 Reference value :  3.75092e-05
 Reference value :  3.75103e-05
 Reference value :  3.75167e-05
 Reference value :  3.75795e-05
 Reference value :  3.77501e-05
 Reference value :  3.77502e-05
 Reference value :  3.77503e-05
 Reference value :  3.77510e-05
 Reference value :  3.77519e-05
 Reference value :  3.77534e-05
 Reference value :  3.77545e-05
 Reference value :  3.77566e-05
 Reference value :  3.77596e-05
 Reference value :  3.77893e-05
 Reference value :  3.80000e-05
 Reference value :  3.80000e-05
 Reference value :  3.80001e-05
 Reference value :  3.80001e-05
 Reference value :  3.80002e-05
 Reference value :  3.80005e-05
 Reference value :  3.80012e-05
 Reference value :  3.80020e-05
 Reference value :  3.80029e-05
 Reference value :  3.80039e-05
 Reference value :  3.80048e-05
 Reference value :  3.80059e-05
 Reference value :  3.80076e-05
 Reference value :  3.80093e-05
 Reference value :  3.80111e-05
 Reference value :  3.80127e-05
 Reference value :  3.80145e-05
 Reference value :  3.80167e-05
 Reference value :  3.80216e-05
 Reference value :  3.80431e-05
 Reference value :  3.80728e-05
 Reference value :  3.80973e-05
 Reference value :  3.81528e-05
 Reference value :  3.82501e-05
 Reference value :  3.82502e-05
 Reference value :  3.82503e-05
 Reference value :  3.82507e-05
 Reference value :  3.82514e-05
 Reference value :  3.82523e-05
 Reference value :  3.82530e-05
 Reference value :  3.82534e-05
 Reference value :  3.82546e-05
 Reference value :  3.82560e-05
 Reference value :  3.82590e-05
 Reference value :  3.82618e-05
 Reference value :  3.82875e-05
 Reference value :  3.83756e-05
 Reference value :  3.85001e-05
 Reference value :  3.85005e-05
 Reference value :  3.85009e-05
 Reference value :  3.85015e-05
 Reference value :  3.85028e-05
 Reference value :  3.85046e-05
 Reference value :  3.85061e-05
 Reference value :  3.85077e-05
 Reference value :  3.85126e-05
 Reference value :  3.86062e-05
 Reference value :  3.87502e-05
 Reference value :  3.87503e-05
 Reference value :  3.87507e-05
 Reference value :  3.87514e-05
 Reference value :  3.87530e-05
 Reference value :  3.87540e-05
 Reference value :  3.87558e-05
 Reference value :  3.87596e-05
 Reference value :  3.88190e-05
 Reference value :  3.90000e-05
 Reference value :  3.90001e-05
 Reference value :  3.90003e-05
 Reference value :  3.90012e-05
 Reference value :  3.90020e-05
 Reference value :  3.90029e-05
 Reference value :  3.90039e-05
 Reference value :  3.90053e-05
 Reference value :  3.90076e-05
 Reference value :  3.90093e-05
 Reference value :  3.90111e-05
 Reference value :  3.90136e-05
 Reference value :  3.90154e-05
 Reference value :  3.90195e-05
 Reference value :  3.90327e-05
 Reference value :  3.90636e-05
 Reference value :  3.91078e-05
 Reference value :  3.91340e-05
 Reference value :  3.92186e-05
 Reference value :  3.92501e-05
 Reference value :  3.92502e-05
 Reference value :  3.92504e-05
 Reference value :  3.92510e-05
 Reference value :  3.92519e-05
 Reference value :  3.92530e-05
 Reference value :  3.92534e-05
 Reference value :  3.92546e-05
 Reference value :  3.92560e-05
 Reference value :  3.92590e-05
 Reference value :  3.92654e-05
 Reference value :  3.92874e-05
 Reference value :  3.93754e-05
 Reference value :  3.95000e-05
 Reference value :  3.95000e-05
 Reference value :  3.95001e-05
 Reference value :  3.95001e-05
 Reference value :  3.95002e-05
 Reference value :  3.95005e-05
 Reference value :  3.95012e-05
 Reference value :  3.95015e-05
 Reference value :  3.95023e-05
 Reference value :  3.95028e-05
 Reference value :  3.95039e-05
 Reference value :  3.95054e-05
 Reference value :  3.95060e-05
 Reference value :  3.95075e-05
 Reference value :  3.95092e-05
 Reference value :  3.95114e-05
 Reference value :  3.95221e-05
 Reference value :  3.95790e-05
 Reference value :  3.97501e-05
 Reference value :  3.97502e-05
 Reference value :  3.97503e-05
 Reference value :  3.97504e-05
 Reference value :  3.97510e-05
 Reference value :  3.97514e-05
 Reference value :  3.97523e-05
 Reference value :  3.97530e-05
 Reference value :  3.97534e-05
 Reference value :  3.97545e-05
 Reference value :  3.97558e-05
 Reference value :  3.97575e-05
 Reference value :  3.97596e-05
 Reference value :  3.97673e-05
 Reference value :  3.98186e-05
 Reference value :  4.00000e-05
 Reference value :  4.00000e-05
 Reference value :  4.00001e-05
 Reference value :  4.00002e-05
 Reference value :  4.00005e-05
 Reference value :  4.00008e-05
 Reference value :  4.00012e-05
 Reference value :  4.00016e-05
 Reference value :  4.00024e-05
 Reference value :  4.00029e-05
 Reference value :  4.00039e-05
 Reference value :  4.00048e-05
 Reference value :  4.00066e-05
 Reference value :  4.00085e-05
 Reference value :  4.00102e-05
 Reference value :  4.00119e-05
 Reference value :  4.00136e-05
 Reference value :  4.00153e-05
 Reference value :  4.00174e-05
 Reference value :  4.00208e-05
 Reference value :  4.00372e-05
 Reference value :  4.00752e-05
 Reference value :  4.01747e-05
 Reference value :  4.02501e-05
 Reference value :  4.02502e-05
 Reference value :  4.02507e-05
 Reference value :  4.02519e-05
 Reference value :  4.02530e-05
 Reference value :  4.02540e-05
 Reference value :  4.02553e-05
 Reference value :  4.02590e-05
 Reference value :  4.02874e-05
 Reference value :  4.05000e-05
 Reference value :  4.05001e-05
 Reference value :  4.05002e-05
 Reference value :  4.05008e-05
 Reference value :  4.05019e-05
 Reference value :  4.05028e-05
 Reference value :  4.05039e-05
 Reference value :  4.05060e-05
 Reference value :  4.05075e-05
 Reference value :  4.05103e-05
 Reference value :  4.05136e-05
 Reference value :  4.05221e-05
 Reference value :  4.05474e-05
 Reference value :  4.06423e-05
 Reference value :  4.07501e-05
 Reference value :  4.07502e-05
 Reference value :  4.07502e-05
 Reference value :  4.07503e-05
 Reference value :  4.07510e-05
 Reference value :  4.07519e-05
 Reference value :  4.07534e-05
 Reference value :  4.07545e-05
 Reference value :  4.07558e-05
 Reference value :  4.07583e-05
 Reference value :  4.07610e-05
 Reference value :  4.07893e-05
 Reference value :  4.09947e-05
 Reference value :  4.10001e-05
 Reference value :  4.10001e-05
 Reference value :  4.10001e-05
 Reference value :  4.10002e-05
 Reference value :  4.10004e-05
 Reference value :  4.10011e-05
 Reference value :  4.10015e-05
 Reference value :  4.10023e-05
 Reference value :  4.10028e-05
 Reference value :  4.10038e-05
 Reference value :  4.10047e-05
 Reference value :  4.10064e-05
 Reference value :  4.10092e-05
 Reference value :  4.10111e-05
 Reference value :  4.10127e-05
 Reference value :  4.10135e-05
 Reference value :  4.10152e-05
 Reference value :  4.10187e-05
 Reference value :  4.10360e-05
 Reference value :  4.11499e-05
 Reference value :  4.12501e-05
 Reference value :  4.12502e-05
 Reference value :  4.12503e-05
 Reference value :  4.12510e-05
 Reference value :  4.12519e-05
 Reference value :  4.12530e-05
 Reference value :  4.12540e-05
 Reference value :  4.12553e-05
 Reference value :  4.12590e-05
 Reference value :  4.12874e-05
 Reference value :  4.14925e-05
 Reference value :  4.15000e-05
 Reference value :  4.15001e-05
 Reference value :  4.15001e-05
 Reference value :  4.15002e-05
 Reference value :  4.15005e-05
 Reference value :  4.15012e-05
 Reference value :  4.15019e-05
 Reference value :  4.15028e-05
 Reference value :  4.15039e-05
 Reference value :  4.15054e-05
 Reference value :  4.15060e-05
 Reference value :  4.15075e-05
 Reference value :  4.15103e-05
 Reference value :  4.15167e-05
 Reference value :  4.15474e-05
 Reference value :  4.17501e-05
 Reference value :  4.17502e-05
 Reference value :  4.17502e-05
 Reference value :  4.17503e-05
 Reference value :  4.17507e-05
 Reference value :  4.17514e-05
 Reference value :  4.17523e-05
 Reference value :  4.17530e-05
 Reference value :  4.17534e-05
 Reference value :  4.17545e-05
 Reference value :  4.17558e-05
 Reference value :  4.17575e-05
 Reference value :  4.17596e-05
 Reference value :  4.17745e-05
 Reference value :  4.18766e-05
 Reference value :  4.20000e-05
 Reference value :  4.20001e-05
 Reference value :  4.20002e-05
 Reference value :  4.20005e-05
 Reference value :  4.20012e-05
 Reference value :  4.20016e-05
 Reference value :  4.20024e-05
 Reference value :  4.20034e-05
 Reference value :  4.20039e-05
 Reference value :  4.20048e-05
 Reference value :  4.20059e-05
 Reference value :  4.20074e-05
 Reference value :  4.20090e-05
 Reference value :  4.20124e-05
 Reference value :  4.20189e-05
 Reference value :  4.20500e-05
 Reference value :  4.21001e-05
 Reference value :  4.21101e-05
 Reference value :  4.21366e-05
 Reference value :  4.22311e-05
 Reference value :  4.22501e-05
 Reference value :  4.22502e-05
 Reference value :  4.22503e-05
 Reference value :  4.22507e-05
 Reference value :  4.22514e-05
 Reference value :  4.22530e-05
 Reference value :  4.22553e-05
 Reference value :  4.22577e-05
 Reference value :  4.22619e-05
 Reference value :  4.22750e-05
 Reference value :  4.25000e-05
 Reference value :  4.25000e-05
 Reference value :  4.25000e-05
 Reference value :  4.25001e-05
 Reference value :  4.25002e-05
 Reference value :  4.25007e-05
 Reference value :  4.25020e-05
 Reference value :  4.25029e-05
 Reference value :  4.25040e-05
 Reference value :  4.25045e-05
 Reference value :  4.25055e-05
 Reference value :  4.25120e-05
 Reference value :  4.25224e-05
 Reference value :  4.25262e-05
 Reference value :  4.25319e-05
 Reference value :  4.25381e-05
 Reference value :  4.25418e-05
 Reference value :  4.25458e-05
 Reference value :  4.25543e-05
 Reference value :  4.25681e-05
 Reference value :  4.26137e-05
 Reference value :  4.26870e-05
 Reference value :  4.27501e-05
 Reference value :  4.27502e-05
 Reference value :  4.27502e-05
 Reference value :  4.27504e-05
 Reference value :  4.27510e-05
 Reference value :  4.27514e-05
 Reference value :  4.27523e-05
 Reference value :  4.27530e-05
 Reference value :  4.27534e-05
 Reference value :  4.27546e-05
 Reference value :  4.27573e-05
 Reference value :  4.27717e-05
 Reference value :  4.29167e-05
 Reference value :  4.29725e-05
 Reference value :  4.30000e-05
 Reference value :  4.30001e-05
 Reference value :  4.30005e-05
 Reference value :  4.30015e-05
 Reference value :  4.30028e-05
 Reference value :  4.30046e-05
 Reference value :  4.30088e-05
 Reference value :  4.30124e-05
 Reference value :  4.30154e-05
 Reference value :  4.30203e-05
 Reference value :  4.30482e-05
 Reference value :  4.32501e-05
 Reference value :  4.32501e-05
 Reference value :  4.32502e-05
 Reference value :  4.32503e-05
 Reference value :  4.32507e-05
 Reference value :  4.32514e-05
 Reference value :  4.32523e-05
 Reference value :  4.32534e-05
 Reference value :  4.32545e-05
 Reference value :  4.32558e-05
 Reference value :  4.32573e-05
 Reference value :  4.32609e-05
 Reference value :  4.32833e-05
 Reference value :  4.35012e-05
 Reference value :  4.35035e-05
 Reference value :  4.35049e-05
 Reference value :  4.35072e-05
 Reference value :  4.35092e-05
 Reference value :  4.35112e-05
 Reference value :  4.35131e-05
 Reference value :  4.35148e-05
 Reference value :  4.35178e-05
 Reference value :  4.35247e-05
 Reference value :  4.35818e-05
 Reference value :  4.36120e-05
 Reference value :  4.36635e-05
 Reference value :  4.36735e-05
 Reference value :  4.36938e-05
 Reference value :  4.37501e-05
 Reference value :  4.37502e-05
 Reference value :  4.37502e-05
 Reference value :  4.37503e-05
 Reference value :  4.37507e-05
 Reference value :  4.37514e-05
 Reference value :  4.37523e-05
 Reference value :  4.37533e-05
 Reference value :  4.37544e-05
 Reference value :  4.37558e-05
 Reference value :  4.37603e-05
 Reference value :  4.37819e-05
 Reference value :  4.38559e-05
 Reference value :  4.40000e-05
 Reference value :  4.40001e-05
 Reference value :  4.40001e-05
 Reference value :  4.40002e-05
 Reference value :  4.40005e-05
 Reference value :  4.40012e-05
 Reference value :  4.40016e-05
 Reference value :  4.40024e-05
 Reference value :  4.40029e-05
 Reference value :  4.40040e-05
 Reference value :  4.40055e-05
 Reference value :  4.40062e-05
 Reference value :  4.40077e-05
 Reference value :  4.40096e-05
 Reference value :  4.40155e-05
 Reference value :  4.40829e-05
 Reference value :  4.42501e-05
 Reference value :  4.42502e-05
 Reference value :  4.42502e-05
 Reference value :  4.42504e-05
 Reference value :  4.42510e-05
 Reference value :  4.42514e-05
 Reference value :  4.42523e-05
 Reference value :  4.42534e-05
 Reference value :  4.42545e-05
 Reference value :  4.42558e-05
 Reference value :  4.42602e-05
 Reference value :  4.42820e-05
 Reference value :  4.44543e-05
 Reference value :  4.45000e-05
 Reference value :  4.45001e-05
 Reference value :  4.45002e-05
 Reference value :  4.45008e-05
 Reference value :  4.45016e-05
 Reference value :  4.45029e-05
 Reference value :  4.45045e-05
 Reference value :  4.45055e-05
 Reference value :  4.45085e-05
 Reference value :  4.45112e-05
 Reference value :  4.45143e-05
 Reference value :  4.45163e-05
 Reference value :  4.45239e-05
 Reference value :  4.45716e-05
 Reference value :  4.46312e-05
 Reference value :  4.46698e-05
 Reference value :  4.46945e-05
 Reference value :  4.47501e-05
 Reference value :  4.47502e-05
 Reference value :  4.47503e-05
 Reference value :  4.47507e-05
 Reference value :  4.47514e-05
 Reference value :  4.47530e-05
 Reference value :  4.47539e-05
 Reference value :  4.47553e-05
 Reference value :  4.47587e-05
 Reference value :  4.47852e-05
 Reference value :  4.48670e-05
 Reference value :  4.49270e-05
 Reference value :  4.50000e-05
 Reference value :  4.50000e-05
 Reference value :  4.50001e-05
 Reference value :  4.50002e-05
 Reference value :  4.50005e-05
 Reference value :  4.50015e-05
 Reference value :  4.50028e-05
 Reference value :  4.50046e-05
 Reference value :  4.50060e-05
 Reference value :  4.50075e-05
 Reference value :  4.50103e-05
 Reference value :  4.50223e-05
 Reference value :  4.50679e-05
 Reference value :  4.52501e-05
 Reference value :  4.52502e-05
 Reference value :  4.52503e-05
 Reference value :  4.52514e-05
 Reference value :  4.52530e-05
 Reference value :  4.52545e-05
 Reference value :  4.52566e-05
 Reference value :  4.52821e-05
 Reference value :  4.55000e-05
 Reference value :  4.55001e-05
 Reference value :  4.55008e-05
 Reference value :  4.55020e-05
 Reference value :  4.55034e-05
 Reference value :  4.55050e-05
 Reference value :  4.55071e-05
 Reference value :  4.55112e-05
 Reference value :  4.55132e-05
 Reference value :  4.55152e-05
 Reference value :  4.55208e-05
 Reference value :  4.55285e-05
 Reference value :  4.55359e-05
 Reference value :  4.55462e-05
 Reference value :  4.55684e-05
 Reference value :  4.56789e-05
 Reference value :  4.57502e-05
 Reference value :  4.57504e-05
 Reference value :  4.57514e-05
 Reference value :  4.57530e-05
 Reference value :  4.57546e-05
 Reference value :  4.57588e-05
 Reference value :  4.58136e-05
 Reference value :  4.60003e-05
 Reference value :  4.60014e-05
 Reference value :  4.60033e-05
 Reference value :  4.60054e-05
 Reference value :  4.60067e-05
 Reference value :  4.60084e-05
 Reference value :  4.60115e-05
 Reference value :  4.60332e-05
 Reference value :  4.62501e-05
 Reference value :  4.62502e-05
 Reference value :  4.62507e-05
 Reference value :  4.62519e-05
 Reference value :  4.62530e-05
 Reference value :  4.62540e-05
 Reference value :  4.62550e-05
 Reference value :  4.62566e-05
 Reference value :  4.62596e-05
 Reference value :  4.62749e-05
 Reference value :  4.65000e-05
[...]
 Reference value :  1.66514e-04
 Reference value :  1.66514e-04
 Reference value :  1.66516e-04
 Reference value :  1.66519e-04
 Reference value :  1.66529e-04
 Reference value :  1.66537e-04
 Reference value :  1.66543e-04
 Reference value :  1.66553e-04
 Reference value :  1.66579e-04
 Reference value :  1.66750e-04
 Reference value :  1.66750e-04
 Reference value :  1.66750e-04
 Reference value :  1.66751e-04
 Reference value :  1.66751e-04
 Reference value :  1.66753e-04
 Reference value :  1.66754e-04
 Reference value :  1.66756e-04
 Reference value :  1.66772e-04
 Reference value :  1.67000e-04
 Reference value :  1.67000e-04
 Reference value :  1.67000e-04
 Reference value :  1.67001e-04
 Reference value :  1.67002e-04
 Reference value :  1.67004e-04
 Reference value :  1.67006e-04
 Reference value :  1.67009e-04
 Reference value :  1.67020e-04
 Reference value :  1.67250e-04
 Reference value :  1.67250e-04
 Reference value :  1.67250e-04
 Reference value :  1.67251e-04
 Reference value :  1.67253e-04
 Reference value :  1.67254e-04
 Reference value :  1.67255e-04
 Reference value :  1.67260e-04
 Reference value :  1.67293e-04
 Reference value :  1.67307e-04
 Reference value :  1.67322e-04
 Reference value :  1.67399e-04
 Reference value :  1.67500e-04
 Reference value :  1.67500e-04
 Reference value :  1.67500e-04
 Reference value :  1.67502e-04
 Reference value :  1.67503e-04
 Reference value :  1.67504e-04
 Reference value :  1.67506e-04
 Reference value :  1.67509e-04
 Reference value :  1.67510e-04
 Reference value :  1.67512e-04
 Reference value :  1.67514e-04
 Reference value :  1.67516e-04
 Reference value :  1.67518e-04
 Reference value :  1.67541e-04
 Reference value :  1.67750e-04
 Reference value :  1.67750e-04
 Reference value :  1.67751e-04
 Reference value :  1.67752e-04
 Reference value :  1.67753e-04
 Reference value :  1.67754e-04
 Reference value :  1.67755e-04
 Reference value :  1.67757e-04
 Reference value :  1.67765e-04
 Reference value :  1.67815e-04
 Reference value :  1.68000e-04
 Reference value :  1.68000e-04
 Reference value :  1.68000e-04
 Reference value :  1.68000e-04
 Reference value :  1.68001e-04
 Reference value :  1.68002e-04
 Reference value :  1.68003e-04
 Reference value :  1.68004e-04
 Reference value :  1.68006e-04
 Reference value :  1.68006e-04
 Reference value :  1.68008e-04
 Reference value :  1.68010e-04
 Reference value :  1.68020e-04
 Reference value :  1.68152e-04
 Reference value :  1.68250e-04
 Reference value :  1.68250e-04
 Reference value :  1.68251e-04
 Reference value :  1.68253e-04
 Reference value :  1.68254e-04
 Reference value :  1.68256e-04
 Reference value :  1.68264e-04
 Reference value :  1.68358e-04
 Reference value :  1.68500e-04
 Reference value :  1.68500e-04
 Reference value :  1.68501e-04
 Reference value :  1.68501e-04
 Reference value :  1.68502e-04
 Reference value :  1.68503e-04
 Reference value :  1.68504e-04
 Reference value :  1.68506e-04
 Reference value :  1.68507e-04
 Reference value :  1.68510e-04
 Reference value :  1.68511e-04
 Reference value :  1.68513e-04
 Reference value :  1.68515e-04
 Reference value :  1.68517e-04
 Reference value :  1.68529e-04
 Reference value :  1.68572e-04
 Reference value :  1.68750e-04
 Reference value :  1.68750e-04
 Reference value :  1.68750e-04
 Reference value :  1.68750e-04
 Reference value :  1.68751e-04
 Reference value :  1.68751e-04
 Reference value :  1.68752e-04
 Reference value :  1.68753e-04
 Reference value :  1.68753e-04
 Reference value :  1.68755e-04
 Reference value :  1.68756e-04
 Reference value :  1.68762e-04
 Reference value :  1.68815e-04
 Reference value :  1.69000e-04
 Reference value :  1.69000e-04
 Reference value :  1.69000e-04
 Reference value :  1.69000e-04
 Reference value :  1.69000e-04
 Reference value :  1.69000e-04
 Reference value :  1.69001e-04
 Reference value :  1.69001e-04
 Reference value :  1.69001e-04
 Reference value :  1.69002e-04
 Reference value :  1.69002e-04
 Reference value :  1.69003e-04
 Reference value :  1.69003e-04
 Reference value :  1.69005e-04
 Reference value :  1.69006e-04
 Reference value :  1.69008e-04
 Reference value :  1.69010e-04
 Reference value :  1.69015e-04
 Reference value :  1.69047e-04
 Reference value :  1.69250e-04
 Reference value :  1.69250e-04
 Reference value :  1.69250e-04
 Reference value :  1.69250e-04
 Reference value :  1.69251e-04
 Reference value :  1.69252e-04
 Reference value :  1.69253e-04
 Reference value :  1.69253e-04
 Reference value :  1.69254e-04
 Reference value :  1.69256e-04
 Reference value :  1.69264e-04
 Reference value :  1.69500e-04
 Reference value :  1.69500e-04
 Reference value :  1.69501e-04
 Reference value :  1.69502e-04
 Reference value :  1.69503e-04
 Reference value :  1.69505e-04
 Reference value :  1.69506e-04
 Reference value :  1.69508e-04
 Reference value :  1.69516e-04
 Reference value :  1.69733e-04
 Reference value :  1.69750e-04
 Reference value :  1.69750e-04
 Reference value :  1.69750e-04
 Reference value :  1.69750e-04
 Reference value :  1.69751e-04
 Reference value :  1.69751e-04
 Reference value :  1.69753e-04
 Reference value :  1.69755e-04
 Reference value :  1.69756e-04
 Reference value :  1.69758e-04
 Reference value :  1.69766e-04
 Reference value :  1.69822e-04
 Reference value :  1.70000e-04
 Reference value :  1.70000e-04
 Reference value :  1.70000e-04
 Reference value :  1.70000e-04
 Reference value :  1.70000e-04
 Reference value :  1.70000e-04
 Reference value :  1.70000e-04
 Reference value :  1.70001e-04
 Reference value :  1.70001e-04
 Reference value :  1.70002e-04
 Reference value :  1.70002e-04
 Reference value :  1.70003e-04
 Reference value :  1.70004e-04
 Reference value :  1.70006e-04
 Reference value :  1.70022e-04
 Reference value :  1.70026e-04
 Reference value :  1.70029e-04
 Reference value :  1.70034e-04
 Reference value :  1.70038e-04
 Reference value :  1.70050e-04
 Reference value :  1.70090e-04
 Reference value :  1.70186e-04
 Reference value :  1.70250e-04
 Reference value :  1.70250e-04
 Reference value :  1.70250e-04
 Reference value :  1.70251e-04
 Reference value :  1.70251e-04
 Reference value :  1.70252e-04
 Reference value :  1.70253e-04
 Reference value :  1.70255e-04
 Reference value :  1.70259e-04
 Reference value :  1.70313e-04
 Reference value :  1.70420e-04
 Reference value :  1.70472e-04
 Reference value :  1.70500e-04
 Reference value :  1.70500e-04
 Reference value :  1.70500e-04
 Reference value :  1.70500e-04
 Reference value :  1.70501e-04
 Reference value :  1.70502e-04
 Reference value :  1.70503e-04
 Reference value :  1.70504e-04
 Reference value :  1.70506e-04
 Reference value :  1.70509e-04
 Reference value :  1.70511e-04
 Reference value :  1.70512e-04
 Reference value :  1.70515e-04
 Reference value :  1.70534e-04
 Reference value :  1.70643e-04
 Reference value :  1.70750e-04
 Reference value :  1.70750e-04
 Reference value :  1.70750e-04
 Reference value :  1.70750e-04
 Reference value :  1.70751e-04
 Reference value :  1.70752e-04
 Reference value :  1.70753e-04
 Reference value :  1.70754e-04
 Reference value :  1.70755e-04
 Reference value :  1.70757e-04
 Reference value :  1.70758e-04
 Reference value :  1.70761e-04
 Reference value :  1.70773e-04
 Reference value :  1.70849e-04
 Reference value :  1.71000e-04
 Reference value :  1.71000e-04
 Reference value :  1.71001e-04
 Reference value :  1.71002e-04
 Reference value :  1.71003e-04
 Reference value :  1.71004e-04
 Reference value :  1.71005e-04
 Reference value :  1.71007e-04
 Reference value :  1.71008e-04
 Reference value :  1.71010e-04
 Reference value :  1.71012e-04
 Reference value :  1.71014e-04
 Reference value :  1.71017e-04
 Reference value :  1.71038e-04
 Reference value :  1.71118e-04
 Reference value :  1.71160e-04
 Reference value :  1.71227e-04
 Reference value :  1.71250e-04
 Reference value :  1.71250e-04
 Reference value :  1.71250e-04
 Reference value :  1.71251e-04
 Reference value :  1.71251e-04
 Reference value :  1.71252e-04
 Reference value :  1.71253e-04
 Reference value :  1.71255e-04
 Reference value :  1.71257e-04
 Reference value :  1.71272e-04
 Reference value :  1.71373e-04
 Reference value :  1.71500e-04
 Reference value :  1.71500e-04
 Reference value :  1.71500e-04
 Reference value :  1.71501e-04
 Reference value :  1.71502e-04
 Reference value :  1.71503e-04
 Reference value :  1.71505e-04
 Reference value :  1.71506e-04
 Reference value :  1.71508e-04
 Reference value :  1.71512e-04
 Reference value :  1.71547e-04
 Reference value :  1.71750e-04
 Reference value :  1.71750e-04
 Reference value :  1.71750e-04
 Reference value :  1.71751e-04
 Reference value :  1.71751e-04
 Reference value :  1.71753e-04
 Reference value :  1.71754e-04
 Reference value :  1.71756e-04
 Reference value :  1.71770e-04
 Reference value :  1.72000e-04
 Reference value :  1.72000e-04
 Reference value :  1.72001e-04
 Reference value :  1.72002e-04
 Reference value :  1.72003e-04
 Reference value :  1.72004e-04
 Reference value :  1.72005e-04
 Reference value :  1.72007e-04
 Reference value :  1.72010e-04
 Reference value :  1.72011e-04
 Reference value :  1.72013e-04
 Reference value :  1.72015e-04
 Reference value :  1.72019e-04
 Reference value :  1.72036e-04
 Reference value :  1.72103e-04
 Reference value :  1.72183e-04
 Reference value :  1.72250e-04
 Reference value :  1.72250e-04
 Reference value :  1.72250e-04
 Reference value :  1.72251e-04
 Reference value :  1.72251e-04
 Reference value :  1.72253e-04
 Reference value :  1.72254e-04
 Reference value :  1.72256e-04
 Reference value :  1.72265e-04
 Reference value :  1.72420e-04
 Reference value :  1.72500e-04
 Reference value :  1.72500e-04
 Reference value :  1.72501e-04
 Reference value :  1.72502e-04
 Reference value :  1.72503e-04
 Reference value :  1.72505e-04
 Reference value :  1.72506e-04
 Reference value :  1.72508e-04
 Reference value :  1.72510e-04
 Reference value :  1.72515e-04
 Reference value :  1.72530e-04
 Reference value :  1.72652e-04
 Reference value :  1.72750e-04
 Reference value :  1.72750e-04
 Reference value :  1.72750e-04
 Reference value :  1.72751e-04
 Reference value :  1.72752e-04
 Reference value :  1.72753e-04
 Reference value :  1.72753e-04
 Reference value :  1.72754e-04
 Reference value :  1.72756e-04
 Reference value :  1.72760e-04
 Reference value :  1.72782e-04
 Reference value :  1.73000e-04
 Reference value :  1.73000e-04
 Reference value :  1.73000e-04
 Reference value :  1.73000e-04
 Reference value :  1.73001e-04
 Reference value :  1.73002e-04
 Reference value :  1.73002e-04
 Reference value :  1.73003e-04
 Reference value :  1.73004e-04
 Reference value :  1.73005e-04
 Reference value :  1.73006e-04
 Reference value :  1.73008e-04
 Reference value :  1.73011e-04
 Reference value :  1.73012e-04
 Reference value :  1.73014e-04
 Reference value :  1.73015e-04
 Reference value :  1.73017e-04
 Reference value :  1.73021e-04
 Reference value :  1.73028e-04
 Reference value :  1.73032e-04
 Reference value :  1.73039e-04
 Reference value :  1.73043e-04
 Reference value :  1.73045e-04
 Reference value :  1.73052e-04
 Reference value :  1.73067e-04
 Reference value :  1.73088e-04
 Reference value :  1.73231e-04
 Reference value :  1.73250e-04
 Reference value :  1.73250e-04
 Reference value :  1.73250e-04
 Reference value :  1.73250e-04
 Reference value :  1.73251e-04
 Reference value :  1.73251e-04
 Reference value :  1.73252e-04
 Reference value :  1.73253e-04
 Reference value :  1.73254e-04
 Reference value :  1.73256e-04
 Reference value :  1.73265e-04
 Reference value :  1.73369e-04
 Reference value :  1.73500e-04
 Reference value :  1.73500e-04
 Reference value :  1.73500e-04
 Reference value :  1.73500e-04
 Reference value :  1.73500e-04
 Reference value :  1.73501e-04
 Reference value :  1.73502e-04
 Reference value :  1.73503e-04
 Reference value :  1.73504e-04
 Reference value :  1.73505e-04
 Reference value :  1.73507e-04
 Reference value :  1.73507e-04
 Reference value :  1.73509e-04
 Reference value :  1.73511e-04
 Reference value :  1.73532e-04
 Reference value :  1.73750e-04
 Reference value :  1.73750e-04
 Reference value :  1.73750e-04
 Reference value :  1.73750e-04
 Reference value :  1.73751e-04
 Reference value :  1.73751e-04
 Reference value :  1.73752e-04
 Reference value :  1.73753e-04
 Reference value :  1.73753e-04
 Reference value :  1.73754e-04
 Reference value :  1.73754e-04
 Reference value :  1.73756e-04
 Reference value :  1.73758e-04
 Reference value :  1.73760e-04
 Reference value :  1.73764e-04
 Reference value :  1.73790e-04
 Reference value :  1.74000e-04
 Reference value :  1.74000e-04
 Reference value :  1.74000e-04
 Reference value :  1.74000e-04
 Reference value :  1.74001e-04
 Reference value :  1.74001e-04
 Reference value :  1.74002e-04
 Reference value :  1.74003e-04
 Reference value :  1.74004e-04
 Reference value :  1.74005e-04
 Reference value :  1.74007e-04
 Reference value :  1.74008e-04
 Reference value :  1.74010e-04
 Reference value :  1.74012e-04
 Reference value :  1.74014e-04
 Reference value :  1.74015e-04
 Reference value :  1.74017e-04
 Reference value :  1.74029e-04
 Reference value :  1.74062e-04
 Reference value :  1.74085e-04
 Reference value :  1.74101e-04
 Reference value :  1.74141e-04
 Reference value :  1.74189e-04
 Reference value :  1.74250e-04
 Reference value :  1.74250e-04
 Reference value :  1.74250e-04
 Reference value :  1.74251e-04
 Reference value :  1.74253e-04
 Reference value :  1.74254e-04
 Reference value :  1.74257e-04
 Reference value :  1.74287e-04
 Reference value :  1.74500e-04
 Reference value :  1.74500e-04
 Reference value :  1.74500e-04
 Reference value :  1.74501e-04
 Reference value :  1.74501e-04
 Reference value :  1.74502e-04
 Reference value :  1.74502e-04
 Reference value :  1.74503e-04
 Reference value :  1.74504e-04
 Reference value :  1.74505e-04
 Reference value :  1.74506e-04
 Reference value :  1.74507e-04
 Reference value :  1.74509e-04
 Reference value :  1.74514e-04
 Reference value :  1.74547e-04
 Reference value :  1.74750e-04
 Reference value :  1.74750e-04
 Reference value :  1.74750e-04
 Reference value :  1.74751e-04
 Reference value :  1.74751e-04
 Reference value :  1.74752e-04
 Reference value :  1.74753e-04
 Reference value :  1.74754e-04
 Reference value :  1.74756e-04
 Reference value :  1.74757e-04
 Reference value :  1.74760e-04
 Reference value :  1.74775e-04
 Reference value :  1.74997e-04
 Reference value :  1.75000e-04
 Reference value :  1.75000e-04
 Reference value :  1.75000e-04
 Reference value :  1.75001e-04
 Reference value :  1.75002e-04
 Reference value :  1.75003e-04
 Reference value :  1.75004e-04
 Reference value :  1.75006e-04
 Reference value :  1.75008e-04
 Reference value :  1.75010e-04
 Reference value :  1.75012e-04
 Reference value :  1.75014e-04
 Reference value :  1.75019e-04
 Reference value :  1.75032e-04
 Reference value :  1.75040e-04
 Reference value :  1.75053e-04
 Reference value :  1.75160e-04
 Reference value :  1.75250e-04
 Reference value :  1.75250e-04
 Reference value :  1.75251e-04
 Reference value :  1.75252e-04
 Reference value :  1.75253e-04
 Reference value :  1.75254e-04
 Reference value :  1.75255e-04
 Reference value :  1.75259e-04
 Reference value :  1.75287e-04
 Reference value :  1.75487e-04
 Reference value :  1.75500e-04
 Reference value :  1.75500e-04
 Reference value :  1.75500e-04
 Reference value :  1.75500e-04
 Reference value :  1.75501e-04
 Reference value :  1.75501e-04
 Reference value :  1.75502e-04
 Reference value :  1.75503e-04
 Reference value :  1.75504e-04
 Reference value :  1.75505e-04
 Reference value :  1.75506e-04
 Reference value :  1.75508e-04
 Reference value :  1.75511e-04
 Reference value :  1.75529e-04
 Reference value :  1.75750e-04
 Reference value :  1.75750e-04
 Reference value :  1.75750e-04
 Reference value :  1.75751e-04
 Reference value :  1.75751e-04
 Reference value :  1.75753e-04
 Reference value :  1.75754e-04
 Reference value :  1.75755e-04
 Reference value :  1.75758e-04
 Reference value :  1.75807e-04
 Reference value :  1.76000e-04
 Reference value :  1.76000e-04
 Reference value :  1.76000e-04
 Reference value :  1.76001e-04
 Reference value :  1.76002e-04
 Reference value :  1.76003e-04
 Reference value :  1.76004e-04
 Reference value :  1.76005e-04
 Reference value :  1.76007e-04
 Reference value :  1.76011e-04
 Reference value :  1.76013e-04
 Reference value :  1.76016e-04
 Reference value :  1.76024e-04
 Reference value :  1.76034e-04
 Reference value :  1.76042e-04
 Reference value :  1.76051e-04
 Reference value :  1.76080e-04
 Reference value :  1.76181e-04
 Reference value :  1.76250e-04
 Reference value :  1.76250e-04
 Reference value :  1.76251e-04
 Reference value :  1.76251e-04
 Reference value :  1.76253e-04
 Reference value :  1.76254e-04
 Reference value :  1.76256e-04
 Reference value :  1.76265e-04
 Reference value :  1.76369e-04
 Reference value :  1.76500e-04
 Reference value :  1.76500e-04
 Reference value :  1.76500e-04
 Reference value :  1.76501e-04
 Reference value :  1.76502e-04
 Reference value :  1.76503e-04
 Reference value :  1.76505e-04
 Reference value :  1.76506e-04
 Reference value :  1.76507e-04
 Reference value :  1.76510e-04
 Reference value :  1.76522e-04
 Reference value :  1.76579e-04
 Reference value :  1.76750e-04
 Reference value :  1.76750e-04
 Reference value :  1.76750e-04
 Reference value :  1.76751e-04
 Reference value :  1.76753e-04
 Reference value :  1.76754e-04
 Reference value :  1.76755e-04
 Reference value :  1.76757e-04
 Reference value :  1.76758e-04
 Reference value :  1.76764e-04
 Reference value :  1.76819e-04
 Reference value :  1.77000e-04
 Reference value :  1.77000e-04
 Reference value :  1.77001e-04
 Reference value :  1.77002e-04
 Reference value :  1.77003e-04
 Reference value :  1.77004e-04
 Reference value :  1.77005e-04
 Reference value :  1.77006e-04
 Reference value :  1.77008e-04
 Reference value :  1.77009e-04
 Reference value :  1.77011e-04
 Reference value :  1.77013e-04
 Reference value :  1.77016e-04
 Reference value :  1.77027e-04
 Reference value :  1.77127e-04
 Reference value :  1.77250e-04
 Reference value :  1.77250e-04
 Reference value :  1.77250e-04
 Reference value :  1.77251e-04
 Reference value :  1.77253e-04
 Reference value :  1.77255e-04
 Reference value :  1.77259e-04
 Reference value :  1.77317e-04
 Reference value :  1.77500e-04
 Reference value :  1.77500e-04
 Reference value :  1.77500e-04
 Reference value :  1.77501e-04
 Reference value :  1.77502e-04
 Reference value :  1.77503e-04
 Reference value :  1.77505e-04
 Reference value :  1.77506e-04
 Reference value :  1.77507e-04
 Reference value :  1.77510e-04
 Reference value :  1.77547e-04
 Reference value :  1.77750e-04
 Reference value :  1.77750e-04
 Reference value :  1.77751e-04
 Reference value :  1.77753e-04
 Reference value :  1.77754e-04
 Reference value :  1.77756e-04
 Reference value :  1.77760e-04
 Reference value :  1.77789e-04
 Reference value :  1.78000e-04
 Reference value :  1.78000e-04
 Reference value :  1.78001e-04
 Reference value :  1.78002e-04
 Reference value :  1.78003e-04
 Reference value :  1.78004e-04
 Reference value :  1.78005e-04
 Reference value :  1.78007e-04
 Reference value :  1.78009e-04
 Reference value :  1.78012e-04
 Reference value :  1.78019e-04
 Reference value :  1.78039e-04
 Reference value :  1.78088e-04
 Reference value :  1.78127e-04
 Reference value :  1.78165e-04
 Reference value :  1.78250e-04
 Reference value :  1.78250e-04
 Reference value :  1.78250e-04
 Reference value :  1.78250e-04
 Reference value :  1.78251e-04
 Reference value :  1.78253e-04
 Reference value :  1.78255e-04
 Reference value :  1.78259e-04
 Reference value :  1.78262e-04
 Reference value :  1.78382e-04
No. of Data Rows : 26044
ngspice-44 done
