
Note: Compatibility modes selected: hs a


Circuit: ** sch_path: /home/ece/cace/sar-adc-using-sky130-pdk/runs/run_2025-09-13_00-46-00/parameters/dnl/run_0/sar_output_dnl.sch

option SCALE: Scale is set to 1e-06 for instance and model parameters
option SCALE: Scale is set to 1e-06 for instance and model parameters
option SCALE: Scale is set to 1e-06 for instance and model parameters
option SCALE: Scale is set to 1e-06 for instance and model parameters
Doing analysis at TEMP = 27.000000 and TNOM = 27.000000

Using KLU as Direct Linear Solver
Operating point simulation skipped by 'uic',
  now using transient initial conditions.
 Reference value :  1.00000e-12
 Reference value :  1.08400e-12
 Reference value :  1.70990e-12
 Reference value :  6.31093e-12
 Reference value :  1.99002e-11
 Reference value :  1.00000e-10
 Reference value :  1.76198e-10
 Reference value :  6.80873e-10
 Reference value :  1.40105e-09
 Reference value :  2.48916e-09
 Reference value :  5.14022e-09
 Reference value :  7.64755e-09
 Reference value :  1.17206e-08
 Reference value :  1.46838e-08
 Reference value :  2.58596e-08
 Reference value :  4.97937e-08
 Reference value :  2.50100e-07
 Reference value :  2.50170e-07
 Reference value :  2.50223e-07
 Reference value :  2.50405e-07
 Reference value :  2.51016e-07
 Reference value :  2.52920e-07
 Reference value :  2.54847e-07
 Reference value :  2.58747e-07
 Reference value :  2.70899e-07
 Reference value :  2.81988e-07
 Reference value :  4.27441e-07
 Reference value :  5.00070e-07
 Reference value :  5.00220e-07
 Reference value :  5.01310e-07
 Reference value :  5.02669e-07
 Reference value :  5.03798e-07
 Reference value :  5.06122e-07
 Reference value :  5.07297e-07
 Reference value :  5.09877e-07
 Reference value :  5.12563e-07
 Reference value :  5.14005e-07
 Reference value :  5.17409e-07
 Reference value :  5.28367e-07
 Reference value :  5.85120e-07
 Reference value :  7.50110e-07
 Reference value :  7.50170e-07
 Reference value :  7.50224e-07
 Reference value :  7.50448e-07
 Reference value :  7.51567e-07
 Reference value :  7.52584e-07
 Reference value :  7.53359e-07
 Reference value :  7.53869e-07
 Reference value :  7.55026e-07
 Reference value :  7.55631e-07
 Reference value :  7.56459e-07
 Reference value :  7.57326e-07
 Reference value :  7.58279e-07
 Reference value :  7.60576e-07
 Reference value :  7.64869e-07
 Reference value :  7.75939e-07
 Reference value :  9.97329e-07
 Reference value :  1.00003e-06
 Reference value :  1.00011e-06
 Reference value :  1.00022e-06
 Reference value :  1.00086e-06
 Reference value :  1.00231e-06
 Reference value :  1.00334e-06
 Reference value :  1.00457e-06
 Reference value :  1.00576e-06
 Reference value :  1.00726e-06
 Reference value :  1.00935e-06
 Reference value :  1.01147e-06
 Reference value :  1.01263e-06
 Reference value :  1.01351e-06
 Reference value :  1.01536e-06
 Reference value :  1.01737e-06
 Reference value :  1.01856e-06
 Reference value :  1.02165e-06
 Reference value :  1.02805e-06
 Reference value :  1.07825e-06
 Reference value :  1.17661e-06
 Reference value :  1.20850e-06
 Reference value :  1.22756e-06
 Reference value :  1.25010e-06
 Reference value :  1.25017e-06
 Reference value :  1.25022e-06
 Reference value :  1.25045e-06
 Reference value :  1.25102e-06
 Reference value :  1.25203e-06
 Reference value :  1.25327e-06
 Reference value :  1.25439e-06
 Reference value :  1.25561e-06
 Reference value :  1.25931e-06
 Reference value :  1.27247e-06
 Reference value :  1.37067e-06
 Reference value :  1.50001e-06
 Reference value :  1.50010e-06
 Reference value :  1.50016e-06
 Reference value :  1.50052e-06
 Reference value :  1.50131e-06
 Reference value :  1.50278e-06
 Reference value :  1.50391e-06
 Reference value :  1.50638e-06
 Reference value :  1.50805e-06
 Reference value :  1.51087e-06
 Reference value :  1.52771e-06
 Reference value :  1.75011e-06
 Reference value :  1.75020e-06
 Reference value :  1.75026e-06
 Reference value :  1.75070e-06
 Reference value :  1.75205e-06
 Reference value :  1.75335e-06
 Reference value :  1.75444e-06
 Reference value :  1.75560e-06
 Reference value :  1.75736e-06
 Reference value :  1.77235e-06
 Reference value :  1.98812e-06
 Reference value :  2.00003e-06
 Reference value :  2.00011e-06
 Reference value :  2.00022e-06
 Reference value :  2.00086e-06
 Reference value :  2.00231e-06
 Reference value :  2.00332e-06
 Reference value :  2.00449e-06
 Reference value :  2.00584e-06
 Reference value :  2.00747e-06
 Reference value :  2.00975e-06
 Reference value :  2.01278e-06
 Reference value :  2.01496e-06
 Reference value :  2.01716e-06
 Reference value :  2.02138e-06
 Reference value :  2.04011e-06
 Reference value :  2.05184e-06
 Reference value :  2.06570e-06
 Reference value :  2.08803e-06
 Reference value :  2.10626e-06
 Reference value :  2.13104e-06
 Reference value :  2.23896e-06
 Reference value :  2.25013e-06
 Reference value :  2.25021e-06
 Reference value :  2.25045e-06
 Reference value :  2.25156e-06
 Reference value :  2.25334e-06
 Reference value :  2.25441e-06
 Reference value :  2.25666e-06
 Reference value :  2.26685e-06
 Reference value :  2.38801e-06
 Reference value :  2.50003e-06
 Reference value :  2.50011e-06
 Reference value :  2.50022e-06
 Reference value :  2.50086e-06
 Reference value :  2.50175e-06
 Reference value :  2.50268e-06
 Reference value :  2.50322e-06
 Reference value :  2.50442e-06
 Reference value :  2.50604e-06
 Reference value :  2.50673e-06
 Reference value :  2.50839e-06
 Reference value :  2.51145e-06
 Reference value :  2.53627e-06
 Reference value :  2.75010e-06
 Reference value :  2.75020e-06
 Reference value :  2.75045e-06
 Reference value :  2.75150e-06
 Reference value :  2.75326e-06
 Reference value :  2.75490e-06
 Reference value :  2.75794e-06
 Reference value :  2.77315e-06
 Reference value :  2.96670e-06
 Reference value :  3.00010e-06
 Reference value :  3.00034e-06
 Reference value :  3.00131e-06
 Reference value :  3.00278e-06
 Reference value :  3.00393e-06
 Reference value :  3.00518e-06
 Reference value :  3.00641e-06
 Reference value :  3.00817e-06
 Reference value :  3.01043e-06
 Reference value :  3.01263e-06
 Reference value :  3.01351e-06
 Reference value :  3.01536e-06
 Reference value :  3.01737e-06
 Reference value :  3.01857e-06
 Reference value :  3.02166e-06
 Reference value :  3.03439e-06
 Reference value :  3.05632e-06
 Reference value :  3.06651e-06
 Reference value :  3.07302e-06
 Reference value :  3.08494e-06
 Reference value :  3.09577e-06
 Reference value :  3.12092e-06
 Reference value :  3.20128e-06
 Reference value :  3.25013e-06
 Reference value :  3.25021e-06
 Reference value :  3.25032e-06
 Reference value :  3.25070e-06
 Reference value :  3.25150e-06
 Reference value :  3.25326e-06
 Reference value :  3.25439e-06
 Reference value :  3.25497e-06
 Reference value :  3.25647e-06
 Reference value :  3.25928e-06
 Reference value :  3.27239e-06
 Reference value :  3.37064e-06
 Reference value :  3.50001e-06
 Reference value :  3.50007e-06
 Reference value :  3.50012e-06
 Reference value :  3.50034e-06
 Reference value :  3.50131e-06
 Reference value :  3.50278e-06
 Reference value :  3.50391e-06
 Reference value :  3.50549e-06
 Reference value :  3.50718e-06
 Reference value :  3.50888e-06
 Reference value :  3.51087e-06
 Reference value :  3.52768e-06
 Reference value :  3.75011e-06
 Reference value :  3.75021e-06
 Reference value :  3.75032e-06
 Reference value :  3.75101e-06
 Reference value :  3.75202e-06
 Reference value :  3.75325e-06
 Reference value :  3.75437e-06
 Reference value :  3.75549e-06
 Reference value :  3.75711e-06
 Reference value :  3.76413e-06
 Reference value :  3.80456e-06
 Reference value :  4.00000e-06
 Reference value :  4.00007e-06
 Reference value :  4.00012e-06
 Reference value :  4.00034e-06
 Reference value :  4.00086e-06
 Reference value :  4.00231e-06
 Reference value :  4.00332e-06
 Reference value :  4.00584e-06
 Reference value :  4.00836e-06
 Reference value :  4.00976e-06
 Reference value :  4.01278e-06
 Reference value :  4.01389e-06
 Reference value :  4.01611e-06
 Reference value :  4.01716e-06
 Reference value :  4.01945e-06
 Reference value :  4.02660e-06
 Reference value :  4.03691e-06
 Reference value :  4.04943e-06
 Reference value :  4.05400e-06
 Reference value :  4.06275e-06
 Reference value :  4.07347e-06
 Reference value :  4.09371e-06
 Reference value :  4.16767e-06
 Reference value :  4.25010e-06
 Reference value :  4.25013e-06
 Reference value :  4.25021e-06
 Reference value :  4.25032e-06
 Reference value :  4.25070e-06
 Reference value :  4.25150e-06
 Reference value :  4.25251e-06
 Reference value :  4.25376e-06
 Reference value :  4.25494e-06
 Reference value :  4.25639e-06
 Reference value :  4.25924e-06
 Reference value :  4.27176e-06
 Reference value :  4.36280e-06
 Reference value :  4.50003e-06
 Reference value :  4.50011e-06
 Reference value :  4.50022e-06
 Reference value :  4.50052e-06
 Reference value :  4.50131e-06
 Reference value :  4.50223e-06
 Reference value :  4.50322e-06
 Reference value :  4.50442e-06
 Reference value :  4.50604e-06
 Reference value :  4.50673e-06
 Reference value :  4.50840e-06
 Reference value :  4.51032e-06
 Reference value :  4.51272e-06
 Reference value :  4.53587e-06
 Reference value :  4.75010e-06
 Reference value :  4.75013e-06
 Reference value :  4.75020e-06
 Reference value :  4.75026e-06
 Reference value :  4.75070e-06
 Reference value :  4.75150e-06
 Reference value :  4.75251e-06
 Reference value :  4.75377e-06
 Reference value :  4.75490e-06
 Reference value :  4.75627e-06
 Reference value :  4.75893e-06
 Reference value :  4.76407e-06
 Reference value :  4.78152e-06
 Reference value :  4.86790e-06
 Reference value :  5.00001e-06
 Reference value :  5.00010e-06
 Reference value :  5.00016e-06
 Reference value :  5.00052e-06
 Reference value :  5.00182e-06
 Reference value :  5.00334e-06
 Reference value :  5.00518e-06
 Reference value :  5.00641e-06
 Reference value :  5.00817e-06
 Reference value :  5.01043e-06
 Reference value :  5.01263e-06
 Reference value :  5.01350e-06
 Reference value :  5.01545e-06
 Reference value :  5.01752e-06
 Reference value :  5.01875e-06
 Reference value :  5.02197e-06
 Reference value :  5.02848e-06
 Reference value :  5.03635e-06
 Reference value :  5.03910e-06
 Reference value :  5.04402e-06
 Reference value :  5.05097e-06
 Reference value :  5.07295e-06
 Reference value :  5.13960e-06
 Reference value :  5.25010e-06
 Reference value :  5.25013e-06
 Reference value :  5.25021e-06
 Reference value :  5.25032e-06
 Reference value :  5.25101e-06
 Reference value :  5.25202e-06
 Reference value :  5.25378e-06
 Reference value :  5.25497e-06
 Reference value :  5.25768e-06
 Reference value :  5.27236e-06
 Reference value :  5.48305e-06
 Reference value :  5.50007e-06
 Reference value :  5.50012e-06
 Reference value :  5.50034e-06
 Reference value :  5.50131e-06
 Reference value :  5.50231e-06
 Reference value :  5.50333e-06
 Reference value :  5.50455e-06
 Reference value :  5.50638e-06
 Reference value :  5.50718e-06
 Reference value :  5.50889e-06
 Reference value :  5.51087e-06
 Reference value :  5.51875e-06
 Reference value :  5.58115e-06
 Reference value :  5.75011e-06
 Reference value :  5.75020e-06
 Reference value :  5.75026e-06
 Reference value :  5.75070e-06
 Reference value :  5.75150e-06
 Reference value :  5.75325e-06
 Reference value :  5.75377e-06
 Reference value :  5.75490e-06
 Reference value :  5.75626e-06
 Reference value :  5.76087e-06
 Reference value :  5.78135e-06
 Reference value :  5.94227e-06
 Reference value :  6.00007e-06
 Reference value :  6.00016e-06
 Reference value :  6.00086e-06
 Reference value :  6.00231e-06
 Reference value :  6.00390e-06
 Reference value :  6.00584e-06
 Reference value :  6.00976e-06
 Reference value :  6.01132e-06
 Reference value :  6.01389e-06
 Reference value :  6.01611e-06
 Reference value :  6.01825e-06
 Reference value :  6.02138e-06
 Reference value :  6.03194e-06
 Reference value :  6.04650e-06
 Reference value :  6.06088e-06
 Reference value :  6.07611e-06
 Reference value :  6.10391e-06
 Reference value :  6.20510e-06
 Reference value :  6.25013e-06
 Reference value :  6.25021e-06
 Reference value :  6.25032e-06
 Reference value :  6.25101e-06
 Reference value :  6.25251e-06
 Reference value :  6.25375e-06
 Reference value :  6.25493e-06
 Reference value :  6.26195e-06
 Reference value :  6.46608e-06
 Reference value :  6.50007e-06
 Reference value :  6.50016e-06
 Reference value :  6.50052e-06
 Reference value :  6.50131e-06
 Reference value :  6.50223e-06
 Reference value :  6.50322e-06
 Reference value :  6.50442e-06
 Reference value :  6.50604e-06
 Reference value :  6.50673e-06
 Reference value :  6.50840e-06
 Reference value :  6.51032e-06
 Reference value :  6.51145e-06
 Reference value :  6.51856e-06
 Reference value :  6.55411e-06
 Reference value :  6.75010e-06
 Reference value :  6.75017e-06
 Reference value :  6.75021e-06
 Reference value :  6.75032e-06
 Reference value :  6.75101e-06
 Reference value :  6.75150e-06
 Reference value :  6.75251e-06
 Reference value :  6.75377e-06
 Reference value :  6.75548e-06
 Reference value :  6.75793e-06
 Reference value :  6.76706e-06
 Reference value :  6.95902e-06
 Reference value :  7.00010e-06
 Reference value :  7.00034e-06
 Reference value :  7.00182e-06
 Reference value :  7.00334e-06
 Reference value :  7.00518e-06
 Reference value :  7.00725e-06
 Reference value :  7.01042e-06
 Reference value :  7.01262e-06
 Reference value :  7.01433e-06
 Reference value :  7.01644e-06
 Reference value :  7.01872e-06
 Reference value :  7.02433e-06
 Reference value :  7.04663e-06
 Reference value :  7.09363e-06
 Reference value :  7.14012e-06
 Reference value :  7.25010e-06
 Reference value :  7.25017e-06
 Reference value :  7.25026e-06
 Reference value :  7.25070e-06
 Reference value :  7.25150e-06
 Reference value :  7.25251e-06
 Reference value :  7.25378e-06
 Reference value :  7.25497e-06
 Reference value :  7.25647e-06
 Reference value :  7.25926e-06
 Reference value :  7.26533e-06
 Reference value :  7.31450e-06
 Reference value :  7.48307e-06
 Reference value :  7.50003e-06
 Reference value :  7.50010e-06
 Reference value :  7.50012e-06
 Reference value :  7.50034e-06
 Reference value :  7.50086e-06
 Reference value :  7.50182e-06
 Reference value :  7.50333e-06
 Reference value :  7.50455e-06
 Reference value :  7.50638e-06
 Reference value :  7.50718e-06
 Reference value :  7.50889e-06
 Reference value :  7.51200e-06
 Reference value :  7.54547e-06
 Reference value :  7.75010e-06
 Reference value :  7.75017e-06
 Reference value :  7.75022e-06
 Reference value :  7.75045e-06
 Reference value :  7.75101e-06
 Reference value :  7.75202e-06
 Reference value :  7.75325e-06
 Reference value :  7.75436e-06
 Reference value :  7.75548e-06
 Reference value :  7.75710e-06
 Reference value :  7.76981e-06
 Reference value :  7.84993e-06
 Reference value :  8.00001e-06
 Reference value :  8.00010e-06
 Reference value :  8.00022e-06
 Reference value :  8.00086e-06
 Reference value :  8.00182e-06
 Reference value :  8.00332e-06
 Reference value :  8.00521e-06
 Reference value :  8.00650e-06
 Reference value :  8.00836e-06
 Reference value :  8.01026e-06
 Reference value :  8.02554e-06
 Reference value :  8.13217e-06
 Reference value :  8.25013e-06
 Reference value :  8.25021e-06
 Reference value :  8.25032e-06
 Reference value :  8.25070e-06
 Reference value :  8.25150e-06
 Reference value :  8.25324e-06
 Reference value :  8.25602e-06
 Reference value :  8.26021e-06
 Reference value :  8.29658e-06
 Reference value :  8.50000e-06
 Reference value :  8.50000e-06
 Reference value :  8.50001e-06
 Reference value :  8.50004e-06
 Reference value :  8.50011e-06
 Reference value :  8.50018e-06
 Reference value :  8.50121e-06
 Reference value :  8.50268e-06
 Reference value :  8.50388e-06
 Reference value :  8.50499e-06
 Reference value :  8.50830e-06
 Reference value :  8.52438e-06
 Reference value :  8.52884e-06
 Reference value :  8.53204e-06
 Reference value :  8.53433e-06
 Reference value :  8.53810e-06
 Reference value :  8.54087e-06
 Reference value :  8.54183e-06
 Reference value :  8.54901e-06
 Reference value :  8.55533e-06
 Reference value :  8.56904e-06
 Reference value :  8.58626e-06
 Reference value :  8.65466e-06
 Reference value :  8.75010e-06
 Reference value :  8.75017e-06
 Reference value :  8.75022e-06
 Reference value :  8.75070e-06
 Reference value :  8.75202e-06
 Reference value :  8.75377e-06
 Reference value :  8.75497e-06
 Reference value :  8.75769e-06
 Reference value :  8.78617e-06
 Reference value :  8.92028e-06
 Reference value :  8.95589e-06
 Reference value :  8.97241e-06
 Reference value :  9.00001e-06
 Reference value :  9.00012e-06
 Reference value :  9.00052e-06
 Reference value :  9.00174e-06
 Reference value :  9.00319e-06
 Reference value :  9.00518e-06
 Reference value :  9.00721e-06
 Reference value :  9.00983e-06
 Reference value :  9.01249e-06
 Reference value :  9.01548e-06
 Reference value :  9.01939e-06
 Reference value :  9.05364e-06
 Reference value :  9.25011e-06
 Reference value :  9.25020e-06
 Reference value :  9.25032e-06
 Reference value :  9.25101e-06
 Reference value :  9.25202e-06
 Reference value :  9.25325e-06
 Reference value :  9.25377e-06
 Reference value :  9.25489e-06
 Reference value :  9.25625e-06
 Reference value :  9.25891e-06
 Reference value :  9.26700e-06
 Reference value :  9.31856e-06
 Reference value :  9.50000e-06
 Reference value :  9.50007e-06
 Reference value :  9.50012e-06
 Reference value :  9.50022e-06
 Reference value :  9.50086e-06
 Reference value :  9.50182e-06
 Reference value :  9.50278e-06
 Reference value :  9.50392e-06
 Reference value :  9.50519e-06
 Reference value :  9.50576e-06
 Reference value :  9.50818e-06
 Reference value :  9.51042e-06
 Reference value :  9.51263e-06
 Reference value :  9.51351e-06
 Reference value :  9.51536e-06
 Reference value :  9.51736e-06
 Reference value :  9.51979e-06
 Reference value :  9.53626e-06
 Reference value :  9.67460e-06
 Reference value :  9.70618e-06
 Reference value :  9.72506e-06
 Reference value :  9.75010e-06
 Reference value :  9.75017e-06
 Reference value :  9.75022e-06
 Reference value :  9.75045e-06
 Reference value :  9.75101e-06
 Reference value :  9.75202e-06
 Reference value :  9.75378e-06
 Reference value :  9.75497e-06
 Reference value :  9.75768e-06
 Reference value :  9.77235e-06
 Reference value :  9.87062e-06
 Reference value :  1.00000e-05
 Reference value :  1.00001e-05
 Reference value :  1.00003e-05
 Reference value :  1.00013e-05
 Reference value :  1.00028e-05
 Reference value :  1.00039e-05
 Reference value :  1.00064e-05
 Reference value :  1.00080e-05
 Reference value :  1.00109e-05
 Reference value :  1.00277e-05
 Reference value :  1.02501e-05
 Reference value :  1.02502e-05
 Reference value :  1.02503e-05
 Reference value :  1.02507e-05
 Reference value :  1.02520e-05
 Reference value :  1.02538e-05
 Reference value :  1.02549e-05
 Reference value :  1.02563e-05
 Reference value :  1.02641e-05
 Reference value :  1.05000e-05
 Reference value :  1.05001e-05
 Reference value :  1.05009e-05
 Reference value :  1.05028e-05
 Reference value :  1.05039e-05
 Reference value :  1.05058e-05
 Reference value :  1.05098e-05
 Reference value :  1.05128e-05
 Reference value :  1.05150e-05
 Reference value :  1.05172e-05
 Reference value :  1.05214e-05
 Reference value :  1.05553e-05
 Reference value :  1.05963e-05
 Reference value :  1.06318e-05
 Reference value :  1.07501e-05
 Reference value :  1.07502e-05
 Reference value :  1.07504e-05
 Reference value :  1.07515e-05
 Reference value :  1.07533e-05
 Reference value :  1.07549e-05
 Reference value :  1.07578e-05
 Reference value :  1.07652e-05
 Reference value :  1.08626e-05
 Reference value :  1.10000e-05
 Reference value :  1.10001e-05
 Reference value :  1.10002e-05
 Reference value :  1.10009e-05
 Reference value :  1.10017e-05
 Reference value :  1.10027e-05
 Reference value :  1.10032e-05
 Reference value :  1.10044e-05
 Reference value :  1.10067e-05
 Reference value :  1.10084e-05
 Reference value :  1.10115e-05
 Reference value :  1.10355e-05
 Reference value :  1.12501e-05
 Reference value :  1.12502e-05
 Reference value :  1.12504e-05
 Reference value :  1.12515e-05
 Reference value :  1.12533e-05
 Reference value :  1.12549e-05
 Reference value :  1.12563e-05
 Reference value :  1.12602e-05
 Reference value :  1.12671e-05
 Reference value :  1.12958e-05
 Reference value :  1.14604e-05
 Reference value :  1.15000e-05
 Reference value :  1.15001e-05
 Reference value :  1.15002e-05
 Reference value :  1.15009e-05
 Reference value :  1.15023e-05
 Reference value :  1.15033e-05
 Reference value :  1.15052e-05
 Reference value :  1.15064e-05
 Reference value :  1.15104e-05
 Reference value :  1.15126e-05
 Reference value :  1.15144e-05
 Reference value :  1.15164e-05
 Reference value :  1.15186e-05
 Reference value :  1.15280e-05
 Reference value :  1.15564e-05
 Reference value :  1.15722e-05
 Reference value :  1.15928e-05
 Reference value :  1.16392e-05
 Reference value :  1.17501e-05
 Reference value :  1.17502e-05
 Reference value :  1.17504e-05
 Reference value :  1.17515e-05
 Reference value :  1.17533e-05
 Reference value :  1.17544e-05
 Reference value :  1.17556e-05
 Reference value :  1.17593e-05
 Reference value :  1.17864e-05
 Reference value :  1.19832e-05
 Reference value :  1.20000e-05
 Reference value :  1.20001e-05
 Reference value :  1.20002e-05
 Reference value :  1.20005e-05
 Reference value :  1.20013e-05
 Reference value :  1.20023e-05
 Reference value :  1.20033e-05
 Reference value :  1.20046e-05
 Reference value :  1.20072e-05
 Reference value :  1.20089e-05
 Reference value :  1.20109e-05
 Reference value :  1.20276e-05
 Reference value :  1.22501e-05
 Reference value :  1.22502e-05
 Reference value :  1.22502e-05
 Reference value :  1.22507e-05
 Reference value :  1.22515e-05
 Reference value :  1.22525e-05
 Reference value :  1.22538e-05
 Reference value :  1.22549e-05
 Reference value :  1.22555e-05
 Reference value :  1.22571e-05
 Reference value :  1.22641e-05
 Reference value :  1.23044e-05
 Reference value :  1.25000e-05
 Reference value :  1.25001e-05
 Reference value :  1.25002e-05
 Reference value :  1.25005e-05
 Reference value :  1.25013e-05
 Reference value :  1.25023e-05
 Reference value :  1.25033e-05
 Reference value :  1.25045e-05
 Reference value :  1.25058e-05
 Reference value :  1.25084e-05
 Reference value :  1.25098e-05
 Reference value :  1.25128e-05
 Reference value :  1.25150e-05
 Reference value :  1.25172e-05
 Reference value :  1.25231e-05
 Reference value :  1.25373e-05
 Reference value :  1.25500e-05
 Reference value :  1.25547e-05
 Reference value :  1.25637e-05
 Reference value :  1.25747e-05
 Reference value :  1.25871e-05
 Reference value :  1.26344e-05
 Reference value :  1.27501e-05
 Reference value :  1.27502e-05
 Reference value :  1.27503e-05
 Reference value :  1.27507e-05
 Reference value :  1.27515e-05
 Reference value :  1.27525e-05
 Reference value :  1.27538e-05
 Reference value :  1.27549e-05
 Reference value :  1.27578e-05
 Reference value :  1.27717e-05
 Reference value :  1.29663e-05
 Reference value :  1.30000e-05
 Reference value :  1.30001e-05
 Reference value :  1.30002e-05
 Reference value :  1.30009e-05
 Reference value :  1.30017e-05
 Reference value :  1.30032e-05
 Reference value :  1.30044e-05
 Reference value :  1.30060e-05
 Reference value :  1.30067e-05
 Reference value :  1.30084e-05
 Reference value :  1.30103e-05
 Reference value :  1.30127e-05
 Reference value :  1.30355e-05
 Reference value :  1.31638e-05
 Reference value :  1.32501e-05
 Reference value :  1.32502e-05
 Reference value :  1.32503e-05
 Reference value :  1.32510e-05
 Reference value :  1.32515e-05
 Reference value :  1.32525e-05
 Reference value :  1.32538e-05
 Reference value :  1.32549e-05
 Reference value :  1.32563e-05
 Reference value :  1.32589e-05
 Reference value :  1.32617e-05
 Reference value :  1.32731e-05
 Reference value :  1.33197e-05
 Reference value :  1.35000e-05
 Reference value :  1.35001e-05
 Reference value :  1.35001e-05
 Reference value :  1.35003e-05
 Reference value :  1.35009e-05
 Reference value :  1.35023e-05
 Reference value :  1.35033e-05
 Reference value :  1.35046e-05
 Reference value :  1.35058e-05
 Reference value :  1.35082e-05
 Reference value :  1.35104e-05
 Reference value :  1.35126e-05
 Reference value :  1.35135e-05
 Reference value :  1.35155e-05
 Reference value :  1.35175e-05
 Reference value :  1.35200e-05
 Reference value :  1.35278e-05
 Reference value :  1.35352e-05
 Reference value :  1.35378e-05
 Reference value :  1.35425e-05
 Reference value :  1.35489e-05
 Reference value :  1.35596e-05
 Reference value :  1.35815e-05
 Reference value :  1.36282e-05
 Reference value :  1.37501e-05
 Reference value :  1.37501e-05
 Reference value :  1.37502e-05
 Reference value :  1.37503e-05
 Reference value :  1.37510e-05
 Reference value :  1.37520e-05
 Reference value :  1.37533e-05
 Reference value :  1.37544e-05
 Reference value :  1.37556e-05
 Reference value :  1.37593e-05
 Reference value :  1.37864e-05
 Reference value :  1.40000e-05
 Reference value :  1.40001e-05
 Reference value :  1.40002e-05
 Reference value :  1.40009e-05
 Reference value :  1.40023e-05
 Reference value :  1.40033e-05
 Reference value :  1.40055e-05
 Reference value :  1.40072e-05
 Reference value :  1.40089e-05
 Reference value :  1.40109e-05
 Reference value :  1.40277e-05
 Reference value :  1.42501e-05
 Reference value :  1.42502e-05
 Reference value :  1.42502e-05
 Reference value :  1.42504e-05
 Reference value :  1.42510e-05
 Reference value :  1.42520e-05
 Reference value :  1.42533e-05
 Reference value :  1.42538e-05
 Reference value :  1.42549e-05
 Reference value :  1.42563e-05
 Reference value :  1.42609e-05
 Reference value :  1.43043e-05
 Reference value :  1.45000e-05
 Reference value :  1.45001e-05
 Reference value :  1.45002e-05
 Reference value :  1.45009e-05
 Reference value :  1.45023e-05
 Reference value :  1.45033e-05
 Reference value :  1.45052e-05
 Reference value :  1.45075e-05
 Reference value :  1.45098e-05
 Reference value :  1.45139e-05
 Reference value :  1.45161e-05
 Reference value :  1.45182e-05
 Reference value :  1.45266e-05
 Reference value :  1.45465e-05
 Reference value :  1.45676e-05
 Reference value :  1.45941e-05
 Reference value :  1.46645e-05
 Reference value :  1.47501e-05
 Reference value :  1.47502e-05
 Reference value :  1.47503e-05
 Reference value :  1.47510e-05
 Reference value :  1.47520e-05
 Reference value :  1.47532e-05
 Reference value :  1.47538e-05
 Reference value :  1.47549e-05
 Reference value :  1.47578e-05
 Reference value :  1.47717e-05
 Reference value :  1.48105e-05
 Reference value :  1.50000e-05
 Reference value :  1.50001e-05
 Reference value :  1.50003e-05
 Reference value :  1.50013e-05
 Reference value :  1.50027e-05
 Reference value :  1.50038e-05
 Reference value :  1.50060e-05
 Reference value :  1.50075e-05
 Reference value :  1.50103e-05
 Reference value :  1.50185e-05
 Reference value :  1.52501e-05
 Reference value :  1.52502e-05
 Reference value :  1.52507e-05
 Reference value :  1.52520e-05
 Reference value :  1.52538e-05
 Reference value :  1.52555e-05
 Reference value :  1.52579e-05
 Reference value :  1.52641e-05
 Reference value :  1.52957e-05
 Reference value :  1.55000e-05
 Reference value :  1.55007e-05
 Reference value :  1.55028e-05
 Reference value :  1.55041e-05
 Reference value :  1.55047e-05
 Reference value :  1.55058e-05
 Reference value :  1.55081e-05
 Reference value :  1.55104e-05
 Reference value :  1.55136e-05
 Reference value :  1.55156e-05
 Reference value :  1.55191e-05
 Reference value :  1.55307e-05
 Reference value :  1.55458e-05
 Reference value :  1.55546e-05
 Reference value :  1.55601e-05
 Reference value :  1.55744e-05
 Reference value :  1.56132e-05
 Reference value :  1.57501e-05
 Reference value :  1.57502e-05
 Reference value :  1.57502e-05
 Reference value :  1.57504e-05
 Reference value :  1.57515e-05
 Reference value :  1.57532e-05
 Reference value :  1.57544e-05
 Reference value :  1.57556e-05
 Reference value :  1.57593e-05
 Reference value :  1.57865e-05
 Reference value :  1.60000e-05
 Reference value :  1.60001e-05
 Reference value :  1.60002e-05
 Reference value :  1.60009e-05
 Reference value :  1.60023e-05
 Reference value :  1.60033e-05
 Reference value :  1.60055e-05
 Reference value :  1.60072e-05
 Reference value :  1.60089e-05
 Reference value :  1.60109e-05
 Reference value :  1.60276e-05
 Reference value :  1.62501e-05
 Reference value :  1.62502e-05
 Reference value :  1.62504e-05
 Reference value :  1.62515e-05
 Reference value :  1.62532e-05
 Reference value :  1.62538e-05
 Reference value :  1.62549e-05
 Reference value :  1.62563e-05
 Reference value :  1.62588e-05
 Reference value :  1.62641e-05
 Reference value :  1.63041e-05
 Reference value :  1.65000e-05
 Reference value :  1.65001e-05
 Reference value :  1.65002e-05
 Reference value :  1.65009e-05
 Reference value :  1.65023e-05
 Reference value :  1.65033e-05
 Reference value :  1.65052e-05
 Reference value :  1.65075e-05
 Reference value :  1.65114e-05
 Reference value :  1.67501e-05
 Reference value :  1.67502e-05
 Reference value :  1.67504e-05
 Reference value :  1.67515e-05
 Reference value :  1.67532e-05
 Reference value :  1.67560e-05
 Reference value :  1.67632e-05
 Reference value :  1.70000e-05
 Reference value :  1.70000e-05
 Reference value :  1.70000e-05
 Reference value :  1.70001e-05
 Reference value :  1.70004e-05
 Reference value :  1.70022e-05
 Reference value :  1.70032e-05
 Reference value :  1.70045e-05
 Reference value :  1.70050e-05
 Reference value :  1.70062e-05
 Reference value :  1.70100e-05
 Reference value :  1.70244e-05
 Reference value :  1.70288e-05
 Reference value :  1.70320e-05
 Reference value :  1.70363e-05
 Reference value :  1.70393e-05
 Reference value :  1.70429e-05
 Reference value :  1.70507e-05
 Reference value :  1.70614e-05
 Reference value :  1.70861e-05
 Reference value :  1.71509e-05
 Reference value :  1.72501e-05
 Reference value :  1.72501e-05
 Reference value :  1.72502e-05
 Reference value :  1.72503e-05
 Reference value :  1.72510e-05
 Reference value :  1.72520e-05
 Reference value :  1.72538e-05
 Reference value :  1.72556e-05
 Reference value :  1.72618e-05
 Reference value :  1.73140e-05
 Reference value :  1.74156e-05
 Reference value :  1.74835e-05
 Reference value :  1.75000e-05
 Reference value :  1.75001e-05
 Reference value :  1.75002e-05
 Reference value :  1.75005e-05
 Reference value :  1.75013e-05
 Reference value :  1.75022e-05
 Reference value :  1.75032e-05
 Reference value :  1.75044e-05
 Reference value :  1.75072e-05
 Reference value :  1.75098e-05
 Reference value :  1.75125e-05
 Reference value :  1.75174e-05
 Reference value :  1.75526e-05
 Reference value :  1.77501e-05
 Reference value :  1.77502e-05
 Reference value :  1.77503e-05
 Reference value :  1.77510e-05
 Reference value :  1.77520e-05
 Reference value :  1.77533e-05
 Reference value :  1.77538e-05
 Reference value :  1.77549e-05
 Reference value :  1.77563e-05
 Reference value :  1.77579e-05
 Reference value :  1.77616e-05
 Reference value :  1.77729e-05
 Reference value :  1.78647e-05
 Reference value :  1.80008e-05
 Reference value :  1.80031e-05
 Reference value :  1.80045e-05
 Reference value :  1.80057e-05
 Reference value :  1.80078e-05
 Reference value :  1.80097e-05
 Reference value :  1.80116e-05
 Reference value :  1.80137e-05
 Reference value :  1.80157e-05
 Reference value :  1.80179e-05
 Reference value :  1.80205e-05
 Reference value :  1.80253e-05
 Reference value :  1.80609e-05
 Reference value :  1.81458e-05
 Reference value :  1.81857e-05
 Reference value :  1.82123e-05
 Reference value :  1.82501e-05
 Reference value :  1.82502e-05
 Reference value :  1.82502e-05
 Reference value :  1.82504e-05
 Reference value :  1.82515e-05
 Reference value :  1.82538e-05
 Reference value :  1.82565e-05
 Reference value :  1.82862e-05
 Reference value :  1.85000e-05
 Reference value :  1.85001e-05
 Reference value :  1.85005e-05
 Reference value :  1.85013e-05
 Reference value :  1.85023e-05
 Reference value :  1.85033e-05
 Reference value :  1.85045e-05
 Reference value :  1.85064e-05
 Reference value :  1.85072e-05
 Reference value :  1.85089e-05
 Reference value :  1.85109e-05
 Reference value :  1.85187e-05
 Reference value :  1.86523e-05
 Reference value :  1.87501e-05
 Reference value :  1.87502e-05
 Reference value :  1.87502e-05
 Reference value :  1.87504e-05
 Reference value :  1.87510e-05
 Reference value :  1.87520e-05
 Reference value :  1.87533e-05
 Reference value :  1.87538e-05
 Reference value :  1.87549e-05
 Reference value :  1.87563e-05
 Reference value :  1.87609e-05
 Reference value :  1.88042e-05
 Reference value :  1.90000e-05
 Reference value :  1.90001e-05
 Reference value :  1.90002e-05
 Reference value :  1.90009e-05
 Reference value :  1.90023e-05
 Reference value :  1.90033e-05
 Reference value :  1.90045e-05
 Reference value :  1.90058e-05
 Reference value :  1.90084e-05
 Reference value :  1.90098e-05
 Reference value :  1.90128e-05
 Reference value :  1.90150e-05
 Reference value :  1.90172e-05
 Reference value :  1.90195e-05
 Reference value :  1.90266e-05
 Reference value :  1.90553e-05
 Reference value :  1.90865e-05
 Reference value :  1.90970e-05
 Reference value :  1.91149e-05
 Reference value :  1.91455e-05
 Reference value :  1.92501e-05
 Reference value :  1.92502e-05
 Reference value :  1.92504e-05
 Reference value :  1.92515e-05
 Reference value :  1.92533e-05
 Reference value :  1.92538e-05
 Reference value :  1.92549e-05
 Reference value :  1.92592e-05
 Reference value :  1.93106e-05
 Reference value :  1.95006e-05
 Reference value :  1.95023e-05
 Reference value :  1.95041e-05
 Reference value :  1.95066e-05
 Reference value :  1.95106e-05
 Reference value :  1.95156e-05
 Reference value :  1.95606e-05
 Reference value :  1.97501e-05
 Reference value :  1.97502e-05
 Reference value :  1.97504e-05
 Reference value :  1.97515e-05
 Reference value :  1.97532e-05
 Reference value :  1.97543e-05
 Reference value :  1.97562e-05
 Reference value :  1.97589e-05
 Reference value :  1.97639e-05
 Reference value :  1.97941e-05
 Reference value :  2.00000e-05
 Reference value :  2.00001e-05
 Reference value :  2.00001e-05
 Reference value :  2.00003e-05
 Reference value :  2.00013e-05
 Reference value :  2.00028e-05
 Reference value :  2.00039e-05
 Reference value :  2.00058e-05
 Reference value :  2.00082e-05
 Reference value :  2.00104e-05
 Reference value :  2.00126e-05
 Reference value :  2.00135e-05
 Reference value :  2.00154e-05
 Reference value :  2.00174e-05
 Reference value :  2.00186e-05
 Reference value :  2.00238e-05
 Reference value :  2.00466e-05
 Reference value :  2.00565e-05
 Reference value :  2.00652e-05
 Reference value :  2.00705e-05
 Reference value :  2.00830e-05
 Reference value :  2.00970e-05
 Reference value :  2.01285e-05
 Reference value :  2.02501e-05
 Reference value :  2.02502e-05
 Reference value :  2.02502e-05
 Reference value :  2.02503e-05
 Reference value :  2.02507e-05
 Reference value :  2.02515e-05
 Reference value :  2.02525e-05
 Reference value :  2.02533e-05
 Reference value :  2.02538e-05
 Reference value :  2.02550e-05
 Reference value :  2.02565e-05
 Reference value :  2.02593e-05
 Reference value :  2.02724e-05
 Reference value :  2.03707e-05
 Reference value :  2.05003e-05
 Reference value :  2.05012e-05
 Reference value :  2.05019e-05
 Reference value :  2.05028e-05
 Reference value :  2.05039e-05
 Reference value :  2.05065e-05
 Reference value :  2.05084e-05
 Reference value :  2.05104e-05
 Reference value :  2.05129e-05
 Reference value :  2.05248e-05
 Reference value :  2.05818e-05
 Reference value :  2.07501e-05
 Reference value :  2.07502e-05
 Reference value :  2.07503e-05
 Reference value :  2.07507e-05
 Reference value :  2.07515e-05
 Reference value :  2.07532e-05
 Reference value :  2.07538e-05
 Reference value :  2.07549e-05
 Reference value :  2.07563e-05
 Reference value :  2.07608e-05
 Reference value :  2.08040e-05
 Reference value :  2.10000e-05
 Reference value :  2.10001e-05
 Reference value :  2.10002e-05
 Reference value :  2.10005e-05
 Reference value :  2.10018e-05
 Reference value :  2.10028e-05
 Reference value :  2.10039e-05
 Reference value :  2.10052e-05
 Reference value :  2.10058e-05
 Reference value :  2.10075e-05
 Reference value :  2.10098e-05
 Reference value :  2.10128e-05
 Reference value :  2.10150e-05
 Reference value :  2.10172e-05
 Reference value :  2.10214e-05
 Reference value :  2.10319e-05
 Reference value :  2.10450e-05
 Reference value :  2.10514e-05
 Reference value :  2.10562e-05
 Reference value :  2.10717e-05
 Reference value :  2.10912e-05
 Reference value :  2.11418e-05
 Reference value :  2.12501e-05
 Reference value :  2.12501e-05
 Reference value :  2.12502e-05
 Reference value :  2.12503e-05
 Reference value :  2.12504e-05
 Reference value :  2.12510e-05
 Reference value :  2.12515e-05
 Reference value :  2.12525e-05
 Reference value :  2.12538e-05
 Reference value :  2.12549e-05
 Reference value :  2.12564e-05
 Reference value :  2.12592e-05
 Reference value :  2.12717e-05
 Reference value :  2.13106e-05
 Reference value :  2.15000e-05
 Reference value :  2.15001e-05
 Reference value :  2.15001e-05
 Reference value :  2.15003e-05
 Reference value :  2.15009e-05
 Reference value :  2.15017e-05
 Reference value :  2.15032e-05
 Reference value :  2.15044e-05
 Reference value :  2.15060e-05
 Reference value :  2.15067e-05
 Reference value :  2.15084e-05
 Reference value :  2.15103e-05
 Reference value :  2.15151e-05
 Reference value :  2.15539e-05
 Reference value :  2.17501e-05
 Reference value :  2.17502e-05
 Reference value :  2.17503e-05
 Reference value :  2.17510e-05
 Reference value :  2.17520e-05
 Reference value :  2.17533e-05
 Reference value :  2.17544e-05
 Reference value :  2.17563e-05
 Reference value :  2.17617e-05
 Reference value :  2.18197e-05
 Reference value :  2.20007e-05
 Reference value :  2.20027e-05
 Reference value :  2.20040e-05
 Reference value :  2.20051e-05
 Reference value :  2.20061e-05
 Reference value :  2.20085e-05
 Reference value :  2.20106e-05
 Reference value :  2.20127e-05
 Reference value :  2.20144e-05
 Reference value :  2.20164e-05
 Reference value :  2.20187e-05
 Reference value :  2.20239e-05
 Reference value :  2.20347e-05
 Reference value :  2.20370e-05
 Reference value :  2.20412e-05
 Reference value :  2.20571e-05
 Reference value :  2.20949e-05
 Reference value :  2.22501e-05
 Reference value :  2.22502e-05
 Reference value :  2.22503e-05
 Reference value :  2.22507e-05
 Reference value :  2.22515e-05
 Reference value :  2.22533e-05
 Reference value :  2.22544e-05
 Reference value :  2.22556e-05
 Reference value :  2.22593e-05
 Reference value :  2.22865e-05
 Reference value :  2.25000e-05
 Reference value :  2.25001e-05
 Reference value :  2.25001e-05
 Reference value :  2.25003e-05
 Reference value :  2.25013e-05
 Reference value :  2.25023e-05
 Reference value :  2.25033e-05
 Reference value :  2.25045e-05
 Reference value :  2.25064e-05
 Reference value :  2.25072e-05
 Reference value :  2.25089e-05
 Reference value :  2.25109e-05
 Reference value :  2.25187e-05
 Reference value :  2.25455e-05
 Reference value :  2.27501e-05
 Reference value :  2.27501e-05
 Reference value :  2.27502e-05
 Reference value :  2.27502e-05
 Reference value :  2.27503e-05
 Reference value :  2.27507e-05
 Reference value :  2.27515e-05
 Reference value :  2.27525e-05
 Reference value :  2.27538e-05
 Reference value :  2.27549e-05
 Reference value :  2.27563e-05
 Reference value :  2.27588e-05
 Reference value :  2.27698e-05
 Reference value :  2.29421e-05
 Reference value :  2.30011e-05
 Reference value :  2.30032e-05
 Reference value :  2.30043e-05
 Reference value :  2.30063e-05
 Reference value :  2.30081e-05
 Reference value :  2.30105e-05
 Reference value :  2.30135e-05
 Reference value :  2.30146e-05
 Reference value :  2.30168e-05
 Reference value :  2.30190e-05
 Reference value :  2.30221e-05
 Reference value :  2.30420e-05
 Reference value :  2.30723e-05
 Reference value :  2.30915e-05
 Reference value :  2.31278e-05
 Reference value :  2.31791e-05
 Reference value :  2.32501e-05
 Reference value :  2.32502e-05
 Reference value :  2.32503e-05
 Reference value :  2.32510e-05
 Reference value :  2.32520e-05
 Reference value :  2.32537e-05
 Reference value :  2.32548e-05
 Reference value :  2.32572e-05
 Reference value :  2.32640e-05
 Reference value :  2.33063e-05
 Reference value :  2.35000e-05
 Reference value :  2.35001e-05
 Reference value :  2.35002e-05
 Reference value :  2.35005e-05
 Reference value :  2.35013e-05
 Reference value :  2.35017e-05
 Reference value :  2.35027e-05
 Reference value :  2.35032e-05
 Reference value :  2.35044e-05
 Reference value :  2.35052e-05
 Reference value :  2.35067e-05
 Reference value :  2.35084e-05
 Reference value :  2.35103e-05
 Reference value :  2.35114e-05
 Reference value :  2.35151e-05
 Reference value :  2.35357e-05
 Reference value :  2.36654e-05
 Reference value :  2.37501e-05
 Reference value :  2.37502e-05
 Reference value :  2.37503e-05
 Reference value :  2.37507e-05
 Reference value :  2.37515e-05
 Reference value :  2.37525e-05
 Reference value :  2.37538e-05
 Reference value :  2.37549e-05
 Reference value :  2.37563e-05
 Reference value :  2.37579e-05
 Reference value :  2.37616e-05
 Reference value :  2.37812e-05
 Reference value :  2.39526e-05
 Reference value :  2.40000e-05
 Reference value :  2.40001e-05
 Reference value :  2.40002e-05
 Reference value :  2.40009e-05
 Reference value :  2.40023e-05
 Reference value :  2.40033e-05
 Reference value :  2.40052e-05
 Reference value :  2.40064e-05
 Reference value :  2.40093e-05
 Reference value :  2.40115e-05
 Reference value :  2.40135e-05
 Reference value :  2.40154e-05
 Reference value :  2.40175e-05
 Reference value :  2.40187e-05
 Reference value :  2.40219e-05
 Reference value :  2.40283e-05
 Reference value :  2.40329e-05
 Reference value :  2.40362e-05
 Reference value :  2.40445e-05
 Reference value :  2.40571e-05
 Reference value :  2.40755e-05
 Reference value :  2.41235e-05
 Reference value :  2.42501e-05
 Reference value :  2.42502e-05
 Reference value :  2.42503e-05
 Reference value :  2.42507e-05
 Reference value :  2.42515e-05
 Reference value :  2.42532e-05
 Reference value :  2.42544e-05
 Reference value :  2.42550e-05
 Reference value :  2.42565e-05
 Reference value :  2.42618e-05
 Reference value :  2.43145e-05
 Reference value :  2.45000e-05
 Reference value :  2.45001e-05
 Reference value :  2.45002e-05
 Reference value :  2.45009e-05
 Reference value :  2.45023e-05
 Reference value :  2.45033e-05
 Reference value :  2.45046e-05
 Reference value :  2.45064e-05
 Reference value :  2.45072e-05
 Reference value :  2.45089e-05
 Reference value :  2.45109e-05
 Reference value :  2.45187e-05
 Reference value :  2.45811e-05
 Reference value :  2.47501e-05
 Reference value :  2.47502e-05
 Reference value :  2.47502e-05
 Reference value :  2.47503e-05
 Reference value :  2.47507e-05
 Reference value :  2.47515e-05
 Reference value :  2.47525e-05
 Reference value :  2.47532e-05
 Reference value :  2.47538e-05
 Reference value :  2.47549e-05
 Reference value :  2.47563e-05
 Reference value :  2.47588e-05
 Reference value :  2.47698e-05
 Reference value :  2.49416e-05
 Reference value :  2.50000e-05
 Reference value :  2.50001e-05
 Reference value :  2.50002e-05
 Reference value :  2.50009e-05
 Reference value :  2.50023e-05
 Reference value :  2.50039e-05
 Reference value :  2.50058e-05
 Reference value :  2.50092e-05
 Reference value :  2.50255e-05
 Reference value :  2.52501e-05
 Reference value :  2.52503e-05
 Reference value :  2.52510e-05
 Reference value :  2.52525e-05
 Reference value :  2.52540e-05
 Reference value :  2.52560e-05
 Reference value :  2.52632e-05
 Reference value :  2.54111e-05
 Reference value :  2.55000e-05
 Reference value :  2.55000e-05
 Reference value :  2.55001e-05
 Reference value :  2.55003e-05
 Reference value :  2.55012e-05
 Reference value :  2.55022e-05
 Reference value :  2.55032e-05
 Reference value :  2.55045e-05
 Reference value :  2.55055e-05
 Reference value :  2.55083e-05
 Reference value :  2.55244e-05
 Reference value :  2.55288e-05
 Reference value :  2.55320e-05
 Reference value :  2.55348e-05
 Reference value :  2.55371e-05
 Reference value :  2.55412e-05
 Reference value :  2.55444e-05
 Reference value :  2.55566e-05
 Reference value :  2.55880e-05
 Reference value :  2.56560e-05
 Reference value :  2.57501e-05
 Reference value :  2.57502e-05
 Reference value :  2.57504e-05
 Reference value :  2.57515e-05
 Reference value :  2.57532e-05
 Reference value :  2.57544e-05
 Reference value :  2.57556e-05
 Reference value :  2.57618e-05
 Reference value :  2.58696e-05
 Reference value :  2.59209e-05
 Reference value :  2.59770e-05
 Reference value :  2.60000e-05
 Reference value :  2.60001e-05
 Reference value :  2.60002e-05
 Reference value :  2.60009e-05
 Reference value :  2.60017e-05
 Reference value :  2.60032e-05
 Reference value :  2.60044e-05
 Reference value :  2.60060e-05
 Reference value :  2.60072e-05
 Reference value :  2.60098e-05
 Reference value :  2.60125e-05
 Reference value :  2.60155e-05
 Reference value :  2.60228e-05
 Reference value :  2.60530e-05
 Reference value :  2.62501e-05
 Reference value :  2.62502e-05
 Reference value :  2.62504e-05
 Reference value :  2.62515e-05
 Reference value :  2.62533e-05
 Reference value :  2.62544e-05
 Reference value :  2.62555e-05
 Reference value :  2.62571e-05
 Reference value :  2.62601e-05
 Reference value :  2.62730e-05
 Reference value :  2.64553e-05
 Reference value :  2.65008e-05
 Reference value :  2.65031e-05
 Reference value :  2.65045e-05
 Reference value :  2.65057e-05
 Reference value :  2.65078e-05
 Reference value :  2.65097e-05
 Reference value :  2.65116e-05
 Reference value :  2.65146e-05
 Reference value :  2.65168e-05
 Reference value :  2.65205e-05
 Reference value :  2.65417e-05
 Reference value :  2.66457e-05
 Reference value :  2.66855e-05
 Reference value :  2.67118e-05
 Reference value :  2.67501e-05
 Reference value :  2.67502e-05
 Reference value :  2.67503e-05
 Reference value :  2.67515e-05
 Reference value :  2.67532e-05
 Reference value :  2.67549e-05
 Reference value :  2.67592e-05
 Reference value :  2.68143e-05
 Reference value :  2.70000e-05
 Reference value :  2.70001e-05
 Reference value :  2.70005e-05
 Reference value :  2.70018e-05
 Reference value :  2.70033e-05
 Reference value :  2.70055e-05
 Reference value :  2.70080e-05
 Reference value :  2.70109e-05
 Reference value :  2.70454e-05
 Reference value :  2.72501e-05
 Reference value :  2.72502e-05
 Reference value :  2.72507e-05
 Reference value :  2.72520e-05
 Reference value :  2.72533e-05
 Reference value :  2.72544e-05
 Reference value :  2.72555e-05
 Reference value :  2.72571e-05
 Reference value :  2.72641e-05
 Reference value :  2.73501e-05
 Reference value :  2.75000e-05
 Reference value :  2.75001e-05
 Reference value :  2.75003e-05
 Reference value :  2.75013e-05
 Reference value :  2.75028e-05
 Reference value :  2.75039e-05
 Reference value :  2.75058e-05
 Reference value :  2.75098e-05
 Reference value :  2.75128e-05
 Reference value :  2.75139e-05
 Reference value :  2.75172e-05
 Reference value :  2.75214e-05
 Reference value :  2.75319e-05
 Reference value :  2.75726e-05
 Reference value :  2.75998e-05
 Reference value :  2.76093e-05
 Reference value :  2.76271e-05
 Reference value :  2.76635e-05
 Reference value :  2.77501e-05
 Reference value :  2.77501e-05
 Reference value :  2.77502e-05
 Reference value :  2.77504e-05
 Reference value :  2.77515e-05
 Reference value :  2.77533e-05
 Reference value :  2.77543e-05
 Reference value :  2.77556e-05
 Reference value :  2.77620e-05
 Reference value :  2.78106e-05
 Reference value :  2.80006e-05
 Reference value :  2.80023e-05
 Reference value :  2.80035e-05
 Reference value :  2.80057e-05
 Reference value :  2.80074e-05
 Reference value :  2.80106e-05
 Reference value :  2.80131e-05
 Reference value :  2.80257e-05
 Reference value :  2.81062e-05
 Reference value :  2.82501e-05
 Reference value :  2.82502e-05
 Reference value :  2.82503e-05
 Reference value :  2.82507e-05
 Reference value :  2.82515e-05
 Reference value :  2.82525e-05
 Reference value :  2.82538e-05
 Reference value :  2.82549e-05
 Reference value :  2.82562e-05
 Reference value :  2.82579e-05
 Reference value :  2.82601e-05
 Reference value :  2.82669e-05
 Reference value :  2.82941e-05
 Reference value :  2.84338e-05
 Reference value :  2.85000e-05
 Reference value :  2.85001e-05
 Reference value :  2.85001e-05
 Reference value :  2.85003e-05
 Reference value :  2.85009e-05
 Reference value :  2.85018e-05
 Reference value :  2.85028e-05
 Reference value :  2.85039e-05
 Reference value :  2.85052e-05
 Reference value :  2.85058e-05
 Reference value :  2.85073e-05
 Reference value :  2.85093e-05
 Reference value :  2.85104e-05
 Reference value :  2.85126e-05
 Reference value :  2.85135e-05
 Reference value :  2.85154e-05
 Reference value :  2.85174e-05
 Reference value :  2.85186e-05
 Reference value :  2.85216e-05
 Reference value :  2.85280e-05
 Reference value :  2.85468e-05
 Reference value :  2.85563e-05
 Reference value :  2.85649e-05
 Reference value :  2.85706e-05
 Reference value :  2.85822e-05
 Reference value :  2.85994e-05
 Reference value :  2.86079e-05
 Reference value :  2.86343e-05
 Reference value :  2.87303e-05
 Reference value :  2.87501e-05
 Reference value :  2.87502e-05
 Reference value :  2.87503e-05
 Reference value :  2.87510e-05
 Reference value :  2.87520e-05
 Reference value :  2.87533e-05
 Reference value :  2.87544e-05
 Reference value :  2.87556e-05
 Reference value :  2.87618e-05
 Reference value :  2.88145e-05
 Reference value :  2.90003e-05
 Reference value :  2.90012e-05
 Reference value :  2.90018e-05
 Reference value :  2.90028e-05
 Reference value :  2.90039e-05
 Reference value :  2.90055e-05
 Reference value :  2.90074e-05
 Reference value :  2.90084e-05
 Reference value :  2.90104e-05
 Reference value :  2.90116e-05
 Reference value :  2.90188e-05
 Reference value :  2.90518e-05
 Reference value :  2.92501e-05
 Reference value :  2.92502e-05
 Reference value :  2.92502e-05
 Reference value :  2.92507e-05
 Reference value :  2.92520e-05
 Reference value :  2.92532e-05
 Reference value :  2.92544e-05
 Reference value :  2.92549e-05
 Reference value :  2.92563e-05
 Reference value :  2.92609e-05
 Reference value :  2.93040e-05
 Reference value :  2.95000e-05
 Reference value :  2.95001e-05
 Reference value :  2.95001e-05
 Reference value :  2.95003e-05
 Reference value :  2.95009e-05
 Reference value :  2.95018e-05
 Reference value :  2.95033e-05
 Reference value :  2.95045e-05
 Reference value :  2.95058e-05
 Reference value :  2.95084e-05
 Reference value :  2.95098e-05
 Reference value :  2.95128e-05
 Reference value :  2.95139e-05
 Reference value :  2.95161e-05
 Reference value :  2.95172e-05
 Reference value :  2.95195e-05
 Reference value :  2.95266e-05
 Reference value :  2.95470e-05
 Reference value :  2.95544e-05
 Reference value :  2.95649e-05
 Reference value :  2.95760e-05
 Reference value :  2.95963e-05
 Reference value :  2.96482e-05
 Reference value :  2.97501e-05
 Reference value :  2.97502e-05
 Reference value :  2.97502e-05
 Reference value :  2.97503e-05
 Reference value :  2.97507e-05
 Reference value :  2.97515e-05
 Reference value :  2.97525e-05
 Reference value :  2.97533e-05
 Reference value :  2.97538e-05
 Reference value :  2.97549e-05
 Reference value :  2.97578e-05
 Reference value :  2.97652e-05
 Reference value :  2.98106e-05
 Reference value :  3.00000e-05
 Reference value :  3.00001e-05
 Reference value :  3.00001e-05
 Reference value :  3.00003e-05
 Reference value :  3.00009e-05
 Reference value :  3.00017e-05
 Reference value :  3.00027e-05
 Reference value :  3.00032e-05
 Reference value :  3.00044e-05
 Reference value :  3.00052e-05
 Reference value :  3.00067e-05
 Reference value :  3.00084e-05
 Reference value :  3.00115e-05
 Reference value :  3.00247e-05
 Reference value :  3.01638e-05
 Reference value :  3.02501e-05
 Reference value :  3.02502e-05
 Reference value :  3.02503e-05
 Reference value :  3.02507e-05
 Reference value :  3.02515e-05
 Reference value :  3.02533e-05
 Reference value :  3.02544e-05
 Reference value :  3.02555e-05
 Reference value :  3.02563e-05
 Reference value :  3.02589e-05
 Reference value :  3.02641e-05
 Reference value :  3.02815e-05
 Reference value :  3.05000e-05
 Reference value :  3.05007e-05
 Reference value :  3.05027e-05
 Reference value :  3.05040e-05
 Reference value :  3.05051e-05
 Reference value :  3.05056e-05
 Reference value :  3.05075e-05
 Reference value :  3.05096e-05
 Reference value :  3.05116e-05
 Reference value :  3.05135e-05
 Reference value :  3.05154e-05
 Reference value :  3.05187e-05
 Reference value :  3.05239e-05
 Reference value :  3.05336e-05
 Reference value :  3.05378e-05
 Reference value :  3.05451e-05
 Reference value :  3.05738e-05
 Reference value :  3.06365e-05
 Reference value :  3.07501e-05
 Reference value :  3.07502e-05
 Reference value :  3.07504e-05
 Reference value :  3.07515e-05
 Reference value :  3.07533e-05
 Reference value :  3.07538e-05
 Reference value :  3.07550e-05
 Reference value :  3.07577e-05
 Reference value :  3.07865e-05
 Reference value :  3.09837e-05
 Reference value :  3.10000e-05
 Reference value :  3.10001e-05
 Reference value :  3.10002e-05
 Reference value :  3.10009e-05
 Reference value :  3.10018e-05
 Reference value :  3.10028e-05
 Reference value :  3.10039e-05
 Reference value :  3.10064e-05
 Reference value :  3.10080e-05
 Reference value :  3.10098e-05
 Reference value :  3.10120e-05
 Reference value :  3.10276e-05
 Reference value :  3.10811e-05
 Reference value :  3.12501e-05
 Reference value :  3.12502e-05
 Reference value :  3.12502e-05
 Reference value :  3.12503e-05
 Reference value :  3.12507e-05
 Reference value :  3.12515e-05
 Reference value :  3.12525e-05
 Reference value :  3.12538e-05
 Reference value :  3.12549e-05
 Reference value :  3.12563e-05
 Reference value :  3.12641e-05
 Reference value :  3.13502e-05
 Reference value :  3.15000e-05
 Reference value :  3.15001e-05
 Reference value :  3.15003e-05
 Reference value :  3.15018e-05
 Reference value :  3.15033e-05
 Reference value :  3.15052e-05
 Reference value :  3.15065e-05
 Reference value :  3.15098e-05
 Reference value :  3.15139e-05
 Reference value :  3.15172e-05
 Reference value :  3.15231e-05
 Reference value :  3.15494e-05
 Reference value :  3.15939e-05
 Reference value :  3.16388e-05
 Reference value :  3.16762e-05
 Reference value :  3.17501e-05
 Reference value :  3.17502e-05
 Reference value :  3.17502e-05
 Reference value :  3.17504e-05
 Reference value :  3.17510e-05
 Reference value :  3.17520e-05
 Reference value :  3.17532e-05
 Reference value :  3.17538e-05
 Reference value :  3.17549e-05
 Reference value :  3.17578e-05
 Reference value :  3.17717e-05
 Reference value :  3.20000e-05
 Reference value :  3.20001e-05
 Reference value :  3.20002e-05
 Reference value :  3.20009e-05
 Reference value :  3.20022e-05
 Reference value :  3.20038e-05
 Reference value :  3.20060e-05
 Reference value :  3.20075e-05
 Reference value :  3.20103e-05
 Reference value :  3.20185e-05
 Reference value :  3.20898e-05
 Reference value :  3.22502e-05
 Reference value :  3.22502e-05
 Reference value :  3.22504e-05
 Reference value :  3.22515e-05
 Reference value :  3.22525e-05
 Reference value :  3.22538e-05
 Reference value :  3.22549e-05
 Reference value :  3.22563e-05
 Reference value :  3.22589e-05
 Reference value :  3.22641e-05
 Reference value :  3.22958e-05
 Reference value :  3.24594e-05
 Reference value :  3.25001e-05
 Reference value :  3.25001e-05
 Reference value :  3.25002e-05
 Reference value :  3.25009e-05
 Reference value :  3.25023e-05
 Reference value :  3.25033e-05
 Reference value :  3.25046e-05
 Reference value :  3.25058e-05
 Reference value :  3.25082e-05
 Reference value :  3.25104e-05
 Reference value :  3.25126e-05
 Reference value :  3.25143e-05
 Reference value :  3.25164e-05
 Reference value :  3.25187e-05
 Reference value :  3.25224e-05
 Reference value :  3.25309e-05
 Reference value :  3.25785e-05
 Reference value :  3.27501e-05
 Reference value :  3.27502e-05
 Reference value :  3.27504e-05
 Reference value :  3.27515e-05
 Reference value :  3.27532e-05
 Reference value :  3.27538e-05
 Reference value :  3.27550e-05
 Reference value :  3.27577e-05
 Reference value :  3.27724e-05
 Reference value :  3.29832e-05
 Reference value :  3.30001e-05
 Reference value :  3.30002e-05
 Reference value :  3.30009e-05
 Reference value :  3.30023e-05
 Reference value :  3.30039e-05
 Reference value :  3.30064e-05
 Reference value :  3.30080e-05
 Reference value :  3.30098e-05
 Reference value :  3.30120e-05
 Reference value :  3.30277e-05
 Reference value :  3.31523e-05
 Reference value :  3.32501e-05
 Reference value :  3.32502e-05
 Reference value :  3.32503e-05
 Reference value :  3.32510e-05
 Reference value :  3.32520e-05
 Reference value :  3.32538e-05
 Reference value :  3.32549e-05
 Reference value :  3.32563e-05
 Reference value :  3.32641e-05
 Reference value :  3.33500e-05
 Reference value :  3.35010e-05
 Reference value :  3.35040e-05
 Reference value :  3.35059e-05
 Reference value :  3.35076e-05
 Reference value :  3.35104e-05
 Reference value :  3.35326e-05
 Reference value :  3.37038e-05
 Reference value :  3.37502e-05
 Reference value :  3.37503e-05
 Reference value :  3.37515e-05
 Reference value :  3.37532e-05
 Reference value :  3.37558e-05
 Reference value :  3.37627e-05
 Reference value :  3.38236e-05
 Reference value :  3.40000e-05
 Reference value :  3.40000e-05
 Reference value :  3.40000e-05
 Reference value :  3.40001e-05
 Reference value :  3.40001e-05
 Reference value :  3.40004e-05
 Reference value :  3.40022e-05
 Reference value :  3.40032e-05
 Reference value :  3.40050e-05
 Reference value :  3.40069e-05
 Reference value :  3.40190e-05
 Reference value :  3.40244e-05
 Reference value :  3.40288e-05
 Reference value :  3.40320e-05
 Reference value :  3.40376e-05
 Reference value :  3.40395e-05
 Reference value :  3.40429e-05
 Reference value :  3.40502e-05
 Reference value :  3.40616e-05
 Reference value :  3.40956e-05
 Reference value :  3.41748e-05
 Reference value :  3.42501e-05
 Reference value :  3.42502e-05
 Reference value :  3.42502e-05
 Reference value :  3.42503e-05
 Reference value :  3.42504e-05
 Reference value :  3.42510e-05
 Reference value :  3.42520e-05
 Reference value :  3.42532e-05
 Reference value :  3.42538e-05
 Reference value :  3.42550e-05
 Reference value :  3.42577e-05
 Reference value :  3.42862e-05
 Reference value :  3.44211e-05
 Reference value :  3.44783e-05
 Reference value :  3.45000e-05
 Reference value :  3.45001e-05
 Reference value :  3.45002e-05
 Reference value :  3.45003e-05
 Reference value :  3.45009e-05
 Reference value :  3.45017e-05
 Reference value :  3.45027e-05
 Reference value :  3.45038e-05
 Reference value :  3.45060e-05
 Reference value :  3.45087e-05
 Reference value :  3.45111e-05
 Reference value :  3.45125e-05
 Reference value :  3.45155e-05
 Reference value :  3.45194e-05
 Reference value :  3.45528e-05
 Reference value :  3.47501e-05
 Reference value :  3.47503e-05
 Reference value :  3.47510e-05
 Reference value :  3.47525e-05
 Reference value :  3.47538e-05
 Reference value :  3.47549e-05
 Reference value :  3.47563e-05
 Reference value :  3.47579e-05
 Reference value :  3.47601e-05
 Reference value :  3.47670e-05
 Reference value :  3.47955e-05
 Reference value :  3.48649e-05
 Reference value :  3.50000e-05
 Reference value :  3.50001e-05
 Reference value :  3.50001e-05
 Reference value :  3.50002e-05
 Reference value :  3.50003e-05
 Reference value :  3.50009e-05
 Reference value :  3.50018e-05
 Reference value :  3.50028e-05
 Reference value :  3.50033e-05
 Reference value :  3.50046e-05
 Reference value :  3.50058e-05
 Reference value :  3.50073e-05
 Reference value :  3.50093e-05
 Reference value :  3.50115e-05
 Reference value :  3.50135e-05
 Reference value :  3.50154e-05
 Reference value :  3.50186e-05
 Reference value :  3.50280e-05
 Reference value :  3.51328e-05
 Reference value :  3.51743e-05
 Reference value :  3.52056e-05
 Reference value :  3.52243e-05
 Reference value :  3.52501e-05
 Reference value :  3.52502e-05
 Reference value :  3.52502e-05
 Reference value :  3.52504e-05
 Reference value :  3.52510e-05
 Reference value :  3.52520e-05
 Reference value :  3.52532e-05
 Reference value :  3.52538e-05
 Reference value :  3.52550e-05
 Reference value :  3.52577e-05
 Reference value :  3.52724e-05
 Reference value :  3.53706e-05
 Reference value :  3.55000e-05
 Reference value :  3.55001e-05
 Reference value :  3.55002e-05
 Reference value :  3.55005e-05
 Reference value :  3.55013e-05
 Reference value :  3.55023e-05
 Reference value :  3.55033e-05
 Reference value :  3.55046e-05
 Reference value :  3.55064e-05
 Reference value :  3.55072e-05
 Reference value :  3.55089e-05
 Reference value :  3.55109e-05
 Reference value :  3.55187e-05
 Reference value :  3.55811e-05
 Reference value :  3.57501e-05
 Reference value :  3.57502e-05
 Reference value :  3.57503e-05
 Reference value :  3.57507e-05
 Reference value :  3.57515e-05
 Reference value :  3.57525e-05
 Reference value :  3.57538e-05
 Reference value :  3.57549e-05
 Reference value :  3.57563e-05
 Reference value :  3.57641e-05
 Reference value :  3.58504e-05
 Reference value :  3.60010e-05
 Reference value :  3.60039e-05
 Reference value :  3.60059e-05
 Reference value :  3.60076e-05
 Reference value :  3.60113e-05
 Reference value :  3.60125e-05
 Reference value :  3.60149e-05
 Reference value :  3.60170e-05
 Reference value :  3.60208e-05
 Reference value :  3.60382e-05
 Reference value :  3.60818e-05
 Reference value :  3.60922e-05
 Reference value :  3.61088e-05
 Reference value :  3.61339e-05
 Reference value :  3.62501e-05
 Reference value :  3.62502e-05
 Reference value :  3.62503e-05
 Reference value :  3.62507e-05
 Reference value :  3.62515e-05
 Reference value :  3.62532e-05
 Reference value :  3.62537e-05
 Reference value :  3.62548e-05
 Reference value :  3.62574e-05
 Reference value :  3.62706e-05
 Reference value :  3.65000e-05
 Reference value :  3.65001e-05
 Reference value :  3.65001e-05
 Reference value :  3.65003e-05
 Reference value :  3.65017e-05
 Reference value :  3.65027e-05
 Reference value :  3.65038e-05
 Reference value :  3.65052e-05
 Reference value :  3.65067e-05
 Reference value :  3.65084e-05
 Reference value :  3.65114e-05
 Reference value :  3.65360e-05
 Reference value :  3.67501e-05
 Reference value :  3.67502e-05
 Reference value :  3.67503e-05
 Reference value :  3.67510e-05
 Reference value :  3.67520e-05
 Reference value :  3.67533e-05
 Reference value :  3.67538e-05
 Reference value :  3.67549e-05
 Reference value :  3.67563e-05
 Reference value :  3.67589e-05
 Reference value :  3.67640e-05
 Reference value :  3.67957e-05
 Reference value :  3.70000e-05
 Reference value :  3.70001e-05
 Reference value :  3.70002e-05
 Reference value :  3.70009e-05
 Reference value :  3.70023e-05
 Reference value :  3.70033e-05
 Reference value :  3.70046e-05
 Reference value :  3.70058e-05
 Reference value :  3.70082e-05
 Reference value :  3.70104e-05
 Reference value :  3.70126e-05
 Reference value :  3.70144e-05
 Reference value :  3.70164e-05
 Reference value :  3.70186e-05
 Reference value :  3.70238e-05
 Reference value :  3.70471e-05
 Reference value :  3.70563e-05
 Reference value :  3.70649e-05
 Reference value :  3.70694e-05
 Reference value :  3.70787e-05
 Reference value :  3.70911e-05
 Reference value :  3.71385e-05
 Reference value :  3.72501e-05
 Reference value :  3.72502e-05
 Reference value :  3.72503e-05
 Reference value :  3.72510e-05
 Reference value :  3.72520e-05
 Reference value :  3.72533e-05
 Reference value :  3.72544e-05
 Reference value :  3.72550e-05
 Reference value :  3.72565e-05
 Reference value :  3.72618e-05
 Reference value :  3.72864e-05
 Reference value :  3.74831e-05
 Reference value :  3.75000e-05
 Reference value :  3.75001e-05
 Reference value :  3.75002e-05
 Reference value :  3.75005e-05
 Reference value :  3.75013e-05
 Reference value :  3.75028e-05
 Reference value :  3.75039e-05
 Reference value :  3.75064e-05
 Reference value :  3.75080e-05
 Reference value :  3.75109e-05
 Reference value :  3.75455e-05
 Reference value :  3.77501e-05
 Reference value :  3.77502e-05
 Reference value :  3.77507e-05
 Reference value :  3.77520e-05
 Reference value :  3.77538e-05
 Reference value :  3.77549e-05
 Reference value :  3.77563e-05
 Reference value :  3.77641e-05
 Reference value :  3.78503e-05
 Reference value :  3.80000e-05
 Reference value :  3.80001e-05
 Reference value :  3.80002e-05
 Reference value :  3.80013e-05
 Reference value :  3.80028e-05
 Reference value :  3.80039e-05
 Reference value :  3.80058e-05
 Reference value :  3.80098e-05
 Reference value :  3.80128e-05
 Reference value :  3.80150e-05
 Reference value :  3.80172e-05
 Reference value :  3.80195e-05
 Reference value :  3.80266e-05
 Reference value :  3.80401e-05
 Reference value :  3.80570e-05
 Reference value :  3.80688e-05
 Reference value :  3.80862e-05
 Reference value :  3.81166e-05
 Reference value :  3.82103e-05
 Reference value :  3.82501e-05
 Reference value :  3.82502e-05
 Reference value :  3.82504e-05
 Reference value :  3.82515e-05
 Reference value :  3.82533e-05
 Reference value :  3.82543e-05
 Reference value :  3.82549e-05
 Reference value :  3.82564e-05
 Reference value :  3.82620e-05
 Reference value :  3.82847e-05
 Reference value :  3.84666e-05
 Reference value :  3.85006e-05
 Reference value :  3.85023e-05
 Reference value :  3.85034e-05
 Reference value :  3.85047e-05
 Reference value :  3.85065e-05
 Reference value :  3.85074e-05
 Reference value :  3.85085e-05
 Reference value :  3.85096e-05
 Reference value :  3.85118e-05
 Reference value :  3.85249e-05
 Reference value :  3.86802e-05
 Reference value :  3.87502e-05
 Reference value :  3.87503e-05
 Reference value :  3.87507e-05
 Reference value :  3.87515e-05
 Reference value :  3.87525e-05
 Reference value :  3.87538e-05
 Reference value :  3.87549e-05
 Reference value :  3.87562e-05
 Reference value :  3.87589e-05
 Reference value :  3.87639e-05
 Reference value :  3.87946e-05
 Reference value :  3.90000e-05
 Reference value :  3.90001e-05
 Reference value :  3.90002e-05
 Reference value :  3.90005e-05
 Reference value :  3.90013e-05
 Reference value :  3.90023e-05
 Reference value :  3.90033e-05
 Reference value :  3.90046e-05
 Reference value :  3.90058e-05
 Reference value :  3.90082e-05
 Reference value :  3.90104e-05
 Reference value :  3.90126e-05
 Reference value :  3.90144e-05
 Reference value :  3.90164e-05
 Reference value :  3.90187e-05
 Reference value :  3.90245e-05
 Reference value :  3.90309e-05
 Reference value :  3.90333e-05
 Reference value :  3.90374e-05
 Reference value :  3.90470e-05
 Reference value :  3.90761e-05
 Reference value :  3.91180e-05
 Reference value :  3.92501e-05
 Reference value :  3.92502e-05
 Reference value :  3.92502e-05
 Reference value :  3.92504e-05
 Reference value :  3.92515e-05
 Reference value :  3.92525e-05
 Reference value :  3.92538e-05
 Reference value :  3.92550e-05
 Reference value :  3.92577e-05
 Reference value :  3.92724e-05
 Reference value :  3.94831e-05
 Reference value :  3.95001e-05
 Reference value :  3.95002e-05
 Reference value :  3.95009e-05
 Reference value :  3.95028e-05
 Reference value :  3.95039e-05
 Reference value :  3.95064e-05
 Reference value :  3.95080e-05
 Reference value :  3.95109e-05
 Reference value :  3.95455e-05
 Reference value :  3.97501e-05
 Reference value :  3.97502e-05
 Reference value :  3.97507e-05
 Reference value :  3.97515e-05
 Reference value :  3.97533e-05
 Reference value :  3.97544e-05
 Reference value :  3.97563e-05
 Reference value :  3.97641e-05
 Reference value :  3.99423e-05
 Reference value :  4.00001e-05
 Reference value :  4.00002e-05
 Reference value :  4.00009e-05
 Reference value :  4.00023e-05
 Reference value :  4.00033e-05
 Reference value :  4.00052e-05
 Reference value :  4.00075e-05
 Reference value :  4.00098e-05
 Reference value :  4.00128e-05
 Reference value :  4.00150e-05
 Reference value :  4.00172e-05
 Reference value :  4.00214e-05
 Reference value :  4.00403e-05
 Reference value :  4.01108e-05
 Reference value :  4.02361e-05
 Reference value :  4.02502e-05
 Reference value :  4.02503e-05
 Reference value :  4.02510e-05
 Reference value :  4.02520e-05
 Reference value :  4.02533e-05
 Reference value :  4.02538e-05
 Reference value :  4.02550e-05
 Reference value :  4.02577e-05
 Reference value :  4.02724e-05
 Reference value :  4.04833e-05
 Reference value :  4.05001e-05
 Reference value :  4.05002e-05
 Reference value :  4.05005e-05
 Reference value :  4.05018e-05
 Reference value :  4.05033e-05
 Reference value :  4.05046e-05
 Reference value :  4.05064e-05
 Reference value :  4.05072e-05
 Reference value :  4.05089e-05
 Reference value :  4.05109e-05
 Reference value :  4.05277e-05
 Reference value :  4.07501e-05
 Reference value :  4.07502e-05
 Reference value :  4.07503e-05
 Reference value :  4.07507e-05
 Reference value :  4.07515e-05
 Reference value :  4.07532e-05
 Reference value :  4.07544e-05
 Reference value :  4.07555e-05
 Reference value :  4.07571e-05
 Reference value :  4.07698e-05
 Reference value :  4.08503e-05
 Reference value :  4.10011e-05
 Reference value :  4.10043e-05
 Reference value :  4.10063e-05
 Reference value :  4.10091e-05
 Reference value :  4.10135e-05
 Reference value :  4.10156e-05
 Reference value :  4.10179e-05
 Reference value :  4.10220e-05
 Reference value :  4.10330e-05
 Reference value :  4.10419e-05
 Reference value :  4.10601e-05
 Reference value :  4.11042e-05
 Reference value :  4.12501e-05
 Reference value :  4.12502e-05
 Reference value :  4.12503e-05
 Reference value :  4.12507e-05
 Reference value :  4.12515e-05
 Reference value :  4.12525e-05
 Reference value :  4.12537e-05
 Reference value :  4.12548e-05
 Reference value :  4.12562e-05
 Reference value :  4.12609e-05
 Reference value :  4.13063e-05
 Reference value :  4.14515e-05
 Reference value :  4.15000e-05
 Reference value :  4.15001e-05
 Reference value :  4.15001e-05
 Reference value :  4.15002e-05
 Reference value :  4.15005e-05
 Reference value :  4.15013e-05
 Reference value :  4.15017e-05
 Reference value :  4.15027e-05
 Reference value :  4.15032e-05
 Reference value :  4.15038e-05
 Reference value :  4.15052e-05
 Reference value :  4.15067e-05
 Reference value :  4.15084e-05
 Reference value :  4.15103e-05
 Reference value :  4.15114e-05
 Reference value :  4.15185e-05
 Reference value :  4.15542e-05
 Reference value :  4.17501e-05
 Reference value :  4.17502e-05
 Reference value :  4.17502e-05
 Reference value :  4.17504e-05
 Reference value :  4.17510e-05
 Reference value :  4.17515e-05
 Reference value :  4.17525e-05
 Reference value :  4.17538e-05
 Reference value :  4.17549e-05
 Reference value :  4.17563e-05
 Reference value :  4.17589e-05
 Reference value :  4.17640e-05
 Reference value :  4.17950e-05
 Reference value :  4.20000e-05
 Reference value :  4.20001e-05
 Reference value :  4.20002e-05
 Reference value :  4.20003e-05
 Reference value :  4.20009e-05
 Reference value :  4.20018e-05
 Reference value :  4.20028e-05
 Reference value :  4.20039e-05
 Reference value :  4.20052e-05
 Reference value :  4.20058e-05
 Reference value :  4.20073e-05
 Reference value :  4.20089e-05
 Reference value :  4.20096e-05
 Reference value :  4.20115e-05
 Reference value :  4.20168e-05
 Reference value :  4.20218e-05
 Reference value :  4.20458e-05
 Reference value :  4.21042e-05
 Reference value :  4.21279e-05
 Reference value :  4.21729e-05
 Reference value :  4.22327e-05
 Reference value :  4.22501e-05
 Reference value :  4.22502e-05
 Reference value :  4.22503e-05
 Reference value :  4.22507e-05
 Reference value :  4.22515e-05
 Reference value :  4.22525e-05
 Reference value :  4.22540e-05
 Reference value :  4.22560e-05
 Reference value :  4.22585e-05
 Reference value :  4.22679e-05
 Reference value :  4.24108e-05
 Reference value :  4.25000e-05
 Reference value :  4.25000e-05
 Reference value :  4.25000e-05
 Reference value :  4.25000e-05
 Reference value :  4.25001e-05
 Reference value :  4.25002e-05
 Reference value :  4.25004e-05
 Reference value :  4.25012e-05
 Reference value :  4.25022e-05
 Reference value :  4.25032e-05
 Reference value :  4.25045e-05
 Reference value :  4.25055e-05
 Reference value :  4.25069e-05
 Reference value :  4.25132e-05
 Reference value :  4.25244e-05
 Reference value :  4.25288e-05
 Reference value :  4.25320e-05
 Reference value :  4.25343e-05
 Reference value :  4.25378e-05
 Reference value :  4.25410e-05
 Reference value :  4.25433e-05
 Reference value :  4.25499e-05
 Reference value :  4.25605e-05
 Reference value :  4.26114e-05
 Reference value :  4.27457e-05
 Reference value :  4.27501e-05
 Reference value :  4.27502e-05
 Reference value :  4.27502e-05
 Reference value :  4.27504e-05
 Reference value :  4.27510e-05
 Reference value :  4.27515e-05
 Reference value :  4.27525e-05
 Reference value :  4.27538e-05
 Reference value :  4.27550e-05
 Reference value :  4.27564e-05
 Reference value :  4.27618e-05
 Reference value :  4.27859e-05
 Reference value :  4.28682e-05
 Reference value :  4.29149e-05
 Reference value :  4.29592e-05
 Reference value :  4.29819e-05
 Reference value :  4.29971e-05
 Reference value :  4.30000e-05
 Reference value :  4.30001e-05
 Reference value :  4.30002e-05
 Reference value :  4.30003e-05
 Reference value :  4.30009e-05
 Reference value :  4.30017e-05
 Reference value :  4.30027e-05
 Reference value :  4.30032e-05
 Reference value :  4.30044e-05
 Reference value :  4.30060e-05
 Reference value :  4.30072e-05
 Reference value :  4.30098e-05
 Reference value :  4.30125e-05
 Reference value :  4.30139e-05
 Reference value :  4.30172e-05
 Reference value :  4.30279e-05
 Reference value :  4.30823e-05
 Reference value :  4.32501e-05
 Reference value :  4.32502e-05
 Reference value :  4.32502e-05
 Reference value :  4.32504e-05
 Reference value :  4.32510e-05
 Reference value :  4.32520e-05
 Reference value :  4.32533e-05
 Reference value :  4.32538e-05
 Reference value :  4.32549e-05
 Reference value :  4.32563e-05
 Reference value :  4.32589e-05
 Reference value :  4.32640e-05
 Reference value :  4.32812e-05
 Reference value :  4.33648e-05
 Reference value :  4.35008e-05
 Reference value :  4.35031e-05
 Reference value :  4.35045e-05
 Reference value :  4.35057e-05
 Reference value :  4.35070e-05
 Reference value :  4.35088e-05
 Reference value :  4.35107e-05
 Reference value :  4.35116e-05
 Reference value :  4.35137e-05
 Reference value :  4.35156e-05
 Reference value :  4.35177e-05
 Reference value :  4.35202e-05
 Reference value :  4.35293e-05
 Reference value :  4.36378e-05
 Reference value :  4.36775e-05
 Reference value :  4.37070e-05
 Reference value :  4.37209e-05
 Reference value :  4.37470e-05
 Reference value :  4.37501e-05
 Reference value :  4.37502e-05
 Reference value :  4.37503e-05
 Reference value :  4.37504e-05
 Reference value :  4.37510e-05
 Reference value :  4.37520e-05
 Reference value :  4.37532e-05
 Reference value :  4.37538e-05
 Reference value :  4.37549e-05
 Reference value :  4.37565e-05
 Reference value :  4.37592e-05
 Reference value :  4.37721e-05
 Reference value :  4.38138e-05
 Reference value :  4.40000e-05
 Reference value :  4.40001e-05
 Reference value :  4.40001e-05
 Reference value :  4.40003e-05
 Reference value :  4.40013e-05
 Reference value :  4.40033e-05
 Reference value :  4.40055e-05
 Reference value :  4.40072e-05
 Reference value :  4.40098e-05
 Reference value :  4.40187e-05
 Reference value :  4.40811e-05
 Reference value :  4.42501e-05
 Reference value :  4.42502e-05
 Reference value :  4.42504e-05
 Reference value :  4.42515e-05
 Reference value :  4.42533e-05
 Reference value :  4.42544e-05
 Reference value :  4.42555e-05
 Reference value :  4.42571e-05
 Reference value :  4.42813e-05
 Reference value :  4.45000e-05
 Reference value :  4.45001e-05
 Reference value :  4.45005e-05
 Reference value :  4.45018e-05
 Reference value :  4.45033e-05
 Reference value :  4.45058e-05
 Reference value :  4.45084e-05
 Reference value :  4.45098e-05
 Reference value :  4.45128e-05
 Reference value :  4.45150e-05
 Reference value :  4.45172e-05
 Reference value :  4.45214e-05
 Reference value :  4.45402e-05
 Reference value :  4.45882e-05
 Reference value :  4.46093e-05
 Reference value :  4.46491e-05
 Reference value :  4.47501e-05
 Reference value :  4.47502e-05
 Reference value :  4.47504e-05
 Reference value :  4.47515e-05
 Reference value :  4.47533e-05
 Reference value :  4.47543e-05
 Reference value :  4.47556e-05
 Reference value :  4.47620e-05
 Reference value :  4.48625e-05
 Reference value :  4.50001e-05
 Reference value :  4.50002e-05
 Reference value :  4.50009e-05
 Reference value :  4.50022e-05
 Reference value :  4.50038e-05
 Reference value :  4.50052e-05
 Reference value :  4.50067e-05
 Reference value :  4.50084e-05
 Reference value :  4.50115e-05
 Reference value :  4.50247e-05
 Reference value :  4.52501e-05
 Reference value :  4.52502e-05
 Reference value :  4.52503e-05
 Reference value :  4.52510e-05
 Reference value :  4.52520e-05
 Reference value :  4.52533e-05
 Reference value :  4.52538e-05
 Reference value :  4.52549e-05
 Reference value :  4.52563e-05
 Reference value :  4.52589e-05
 Reference value :  4.52641e-05
 Reference value :  4.52958e-05
 Reference value :  4.54604e-05
 Reference value :  4.55000e-05
 Reference value :  4.55001e-05
 Reference value :  4.55002e-05
 Reference value :  4.55009e-05
 Reference value :  4.55018e-05
 Reference value :  4.55028e-05
 Reference value :  4.55033e-05
 Reference value :  4.55046e-05
 Reference value :  4.55058e-05
 Reference value :  4.55073e-05
 Reference value :  4.55093e-05
 Reference value :  4.55115e-05
 Reference value :  4.55135e-05
 Reference value :  4.55154e-05
 Reference value :  4.55174e-05
 Reference value :  4.55198e-05
 Reference value :  4.55280e-05
 Reference value :  4.55564e-05
 Reference value :  4.55644e-05
 Reference value :  4.55715e-05
 Reference value :  4.55866e-05
 Reference value :  4.56076e-05
 Reference value :  4.57339e-05
 Reference value :  4.57501e-05
 Reference value :  4.57502e-05
 Reference value :  4.57503e-05
 Reference value :  4.57510e-05
 Reference value :  4.57520e-05
 Reference value :  4.57532e-05
 Reference value :  4.57538e-05
 Reference value :  4.57550e-05
 Reference value :  4.57565e-05
 Reference value :  4.57653e-05
 Reference value :  4.58707e-05
 Reference value :  4.60003e-05
 Reference value :  4.60012e-05
 Reference value :  4.60019e-05
 Reference value :  4.60028e-05
 Reference value :  4.60039e-05
 Reference value :  4.60055e-05
[...]
 Reference value :  1.66563e-04
 Reference value :  1.66582e-04
 Reference value :  1.66638e-04
 Reference value :  1.66750e-04
 Reference value :  1.66750e-04
 Reference value :  1.66750e-04
 Reference value :  1.66751e-04
 Reference value :  1.66751e-04
 Reference value :  1.66753e-04
 Reference value :  1.66754e-04
 Reference value :  1.66755e-04
 Reference value :  1.66758e-04
 Reference value :  1.66772e-04
 Reference value :  1.66966e-04
 Reference value :  1.67000e-04
 Reference value :  1.67000e-04
 Reference value :  1.67001e-04
 Reference value :  1.67002e-04
 Reference value :  1.67003e-04
 Reference value :  1.67004e-04
 Reference value :  1.67006e-04
 Reference value :  1.67007e-04
 Reference value :  1.67009e-04
 Reference value :  1.67019e-04
 Reference value :  1.67250e-04
 Reference value :  1.67250e-04
 Reference value :  1.67251e-04
 Reference value :  1.67253e-04
 Reference value :  1.67254e-04
 Reference value :  1.67255e-04
 Reference value :  1.67257e-04
 Reference value :  1.67262e-04
 Reference value :  1.67320e-04
 Reference value :  1.67500e-04
 Reference value :  1.67500e-04
 Reference value :  1.67500e-04
 Reference value :  1.67501e-04
 Reference value :  1.67502e-04
 Reference value :  1.67503e-04
 Reference value :  1.67505e-04
 Reference value :  1.67506e-04
 Reference value :  1.67507e-04
 Reference value :  1.67510e-04
 Reference value :  1.67513e-04
 Reference value :  1.67514e-04
 Reference value :  1.67516e-04
 Reference value :  1.67519e-04
 Reference value :  1.67527e-04
 Reference value :  1.67535e-04
 Reference value :  1.67549e-04
 Reference value :  1.67567e-04
 Reference value :  1.67574e-04
 Reference value :  1.67599e-04
 Reference value :  1.67750e-04
 Reference value :  1.67750e-04
 Reference value :  1.67750e-04
 Reference value :  1.67750e-04
 Reference value :  1.67751e-04
 Reference value :  1.67753e-04
 Reference value :  1.67754e-04
 Reference value :  1.67755e-04
 Reference value :  1.67756e-04
 Reference value :  1.67762e-04
 Reference value :  1.67786e-04
 Reference value :  1.67942e-04
 Reference value :  1.68000e-04
 Reference value :  1.68000e-04
 Reference value :  1.68000e-04
 Reference value :  1.68000e-04
 Reference value :  1.68001e-04
 Reference value :  1.68002e-04
 Reference value :  1.68003e-04
 Reference value :  1.68004e-04
 Reference value :  1.68005e-04
 Reference value :  1.68006e-04
 Reference value :  1.68007e-04
 Reference value :  1.68008e-04
 Reference value :  1.68010e-04
 Reference value :  1.68013e-04
 Reference value :  1.68035e-04
 Reference value :  1.68250e-04
 Reference value :  1.68250e-04
 Reference value :  1.68250e-04
 Reference value :  1.68250e-04
 Reference value :  1.68251e-04
 Reference value :  1.68252e-04
 Reference value :  1.68254e-04
 Reference value :  1.68256e-04
 Reference value :  1.68258e-04
 Reference value :  1.68264e-04
 Reference value :  1.68320e-04
 Reference value :  1.68500e-04
 Reference value :  1.68500e-04
 Reference value :  1.68501e-04
 Reference value :  1.68502e-04
 Reference value :  1.68503e-04
 Reference value :  1.68505e-04
 Reference value :  1.68507e-04
 Reference value :  1.68510e-04
 Reference value :  1.68513e-04
 Reference value :  1.68516e-04
 Reference value :  1.68519e-04
 Reference value :  1.68531e-04
 Reference value :  1.68650e-04
 Reference value :  1.68750e-04
 Reference value :  1.68750e-04
 Reference value :  1.68751e-04
 Reference value :  1.68752e-04
 Reference value :  1.68753e-04
 Reference value :  1.68754e-04
 Reference value :  1.68755e-04
 Reference value :  1.68756e-04
 Reference value :  1.68762e-04
 Reference value :  1.68786e-04
 Reference value :  1.69000e-04
 Reference value :  1.69000e-04
 Reference value :  1.69000e-04
 Reference value :  1.69001e-04
 Reference value :  1.69002e-04
 Reference value :  1.69003e-04
 Reference value :  1.69004e-04
 Reference value :  1.69006e-04
 Reference value :  1.69007e-04
 Reference value :  1.69009e-04
 Reference value :  1.69012e-04
 Reference value :  1.69028e-04
 Reference value :  1.69250e-04
 Reference value :  1.69250e-04
 Reference value :  1.69250e-04
 Reference value :  1.69250e-04
 Reference value :  1.69251e-04
 Reference value :  1.69253e-04
 Reference value :  1.69254e-04
 Reference value :  1.69255e-04
 Reference value :  1.69257e-04
 Reference value :  1.69270e-04
 Reference value :  1.69442e-04
 Reference value :  1.69500e-04
 Reference value :  1.69500e-04
 Reference value :  1.69501e-04
 Reference value :  1.69502e-04
 Reference value :  1.69503e-04
 Reference value :  1.69505e-04
 Reference value :  1.69506e-04
 Reference value :  1.69508e-04
 Reference value :  1.69510e-04
 Reference value :  1.69526e-04
 Reference value :  1.69750e-04
 Reference value :  1.69750e-04
 Reference value :  1.69750e-04
 Reference value :  1.69751e-04
 Reference value :  1.69751e-04
 Reference value :  1.69753e-04
 Reference value :  1.69756e-04
 Reference value :  1.69759e-04
 Reference value :  1.69768e-04
 Reference value :  1.69835e-04
 Reference value :  1.70000e-04
 Reference value :  1.70000e-04
 Reference value :  1.70000e-04
 Reference value :  1.70000e-04
 Reference value :  1.70000e-04
 Reference value :  1.70000e-04
 Reference value :  1.70000e-04
 Reference value :  1.70001e-04
 Reference value :  1.70002e-04
 Reference value :  1.70003e-04
 Reference value :  1.70004e-04
 Reference value :  1.70006e-04
 Reference value :  1.70007e-04
 Reference value :  1.70019e-04
 Reference value :  1.70024e-04
 Reference value :  1.70029e-04
 Reference value :  1.70032e-04
 Reference value :  1.70038e-04
 Reference value :  1.70041e-04
 Reference value :  1.70047e-04
 Reference value :  1.70058e-04
 Reference value :  1.70109e-04
 Reference value :  1.70240e-04
 Reference value :  1.70250e-04
 Reference value :  1.70250e-04
 Reference value :  1.70250e-04
 Reference value :  1.70251e-04
 Reference value :  1.70251e-04
 Reference value :  1.70253e-04
 Reference value :  1.70254e-04
 Reference value :  1.70255e-04
 Reference value :  1.70259e-04
 Reference value :  1.70314e-04
 Reference value :  1.70421e-04
 Reference value :  1.70473e-04
 Reference value :  1.70492e-04
 Reference value :  1.70500e-04
 Reference value :  1.70500e-04
 Reference value :  1.70500e-04
 Reference value :  1.70501e-04
 Reference value :  1.70502e-04
 Reference value :  1.70503e-04
 Reference value :  1.70505e-04
 Reference value :  1.70507e-04
 Reference value :  1.70510e-04
 Reference value :  1.70512e-04
 Reference value :  1.70515e-04
 Reference value :  1.70519e-04
 Reference value :  1.70536e-04
 Reference value :  1.70750e-04
 Reference value :  1.70750e-04
 Reference value :  1.70750e-04
 Reference value :  1.70750e-04
 Reference value :  1.70752e-04
 Reference value :  1.70753e-04
 Reference value :  1.70754e-04
 Reference value :  1.70756e-04
 Reference value :  1.70760e-04
 Reference value :  1.70781e-04
 Reference value :  1.71000e-04
 Reference value :  1.71000e-04
 Reference value :  1.71000e-04
 Reference value :  1.71001e-04
 Reference value :  1.71002e-04
 Reference value :  1.71003e-04
 Reference value :  1.71005e-04
 Reference value :  1.71006e-04
 Reference value :  1.71008e-04
 Reference value :  1.71010e-04
 Reference value :  1.71013e-04
 Reference value :  1.71014e-04
 Reference value :  1.71015e-04
 Reference value :  1.71017e-04
 Reference value :  1.71020e-04
 Reference value :  1.71028e-04
 Reference value :  1.71077e-04
 Reference value :  1.71162e-04
 Reference value :  1.71207e-04
 Reference value :  1.71240e-04
 Reference value :  1.71250e-04
 Reference value :  1.71250e-04
 Reference value :  1.71250e-04
 Reference value :  1.71251e-04
 Reference value :  1.71252e-04
 Reference value :  1.71253e-04
 Reference value :  1.71254e-04
 Reference value :  1.71255e-04
 Reference value :  1.71256e-04
 Reference value :  1.71259e-04
 Reference value :  1.71272e-04
 Reference value :  1.71371e-04
 Reference value :  1.71500e-04
 Reference value :  1.71500e-04
 Reference value :  1.71500e-04
 Reference value :  1.71500e-04
 Reference value :  1.71501e-04
 Reference value :  1.71501e-04
 Reference value :  1.71502e-04
 Reference value :  1.71503e-04
 Reference value :  1.71505e-04
 Reference value :  1.71506e-04
 Reference value :  1.71507e-04
 Reference value :  1.71509e-04
 Reference value :  1.71511e-04
 Reference value :  1.71528e-04
 Reference value :  1.71750e-04
 Reference value :  1.71750e-04
 Reference value :  1.71750e-04
 Reference value :  1.71752e-04
 Reference value :  1.71754e-04
 Reference value :  1.71755e-04
 Reference value :  1.71759e-04
 Reference value :  1.71804e-04
 Reference value :  1.72000e-04
 Reference value :  1.72000e-04
 Reference value :  1.72000e-04
 Reference value :  1.72001e-04
 Reference value :  1.72002e-04
 Reference value :  1.72003e-04
 Reference value :  1.72004e-04
 Reference value :  1.72006e-04
 Reference value :  1.72007e-04
 Reference value :  1.72010e-04
 Reference value :  1.72013e-04
 Reference value :  1.72014e-04
 Reference value :  1.72016e-04
 Reference value :  1.72018e-04
 Reference value :  1.72023e-04
 Reference value :  1.72055e-04
 Reference value :  1.72103e-04
 Reference value :  1.72139e-04
 Reference value :  1.72148e-04
 Reference value :  1.72166e-04
 Reference value :  1.72226e-04
 Reference value :  1.72250e-04
 Reference value :  1.72250e-04
 Reference value :  1.72250e-04
 Reference value :  1.72251e-04
 Reference value :  1.72252e-04
 Reference value :  1.72253e-04
 Reference value :  1.72254e-04
 Reference value :  1.72255e-04
 Reference value :  1.72258e-04
 Reference value :  1.72285e-04
 Reference value :  1.72500e-04
 Reference value :  1.72500e-04
 Reference value :  1.72500e-04
 Reference value :  1.72500e-04
 Reference value :  1.72501e-04
 Reference value :  1.72502e-04
 Reference value :  1.72503e-04
 Reference value :  1.72505e-04
 Reference value :  1.72507e-04
 Reference value :  1.72508e-04
 Reference value :  1.72511e-04
 Reference value :  1.72525e-04
 Reference value :  1.72664e-04
 Reference value :  1.72750e-04
 Reference value :  1.72750e-04
 Reference value :  1.72750e-04
 Reference value :  1.72750e-04
 Reference value :  1.72751e-04
 Reference value :  1.72752e-04
 Reference value :  1.72753e-04
 Reference value :  1.72754e-04
 Reference value :  1.72755e-04
 Reference value :  1.72756e-04
 Reference value :  1.72758e-04
 Reference value :  1.72760e-04
 Reference value :  1.72764e-04
 Reference value :  1.72781e-04
 Reference value :  1.72820e-04
 Reference value :  1.72960e-04
 Reference value :  1.73000e-04
 Reference value :  1.73000e-04
 Reference value :  1.73000e-04
 Reference value :  1.73000e-04
 Reference value :  1.73000e-04
 Reference value :  1.73001e-04
 Reference value :  1.73002e-04
 Reference value :  1.73003e-04
 Reference value :  1.73003e-04
 Reference value :  1.73005e-04
 Reference value :  1.73006e-04
 Reference value :  1.73007e-04
 Reference value :  1.73010e-04
 Reference value :  1.73013e-04
 Reference value :  1.73014e-04
 Reference value :  1.73016e-04
 Reference value :  1.73019e-04
 Reference value :  1.73024e-04
 Reference value :  1.73033e-04
 Reference value :  1.73039e-04
 Reference value :  1.73049e-04
 Reference value :  1.73056e-04
 Reference value :  1.73069e-04
 Reference value :  1.73081e-04
 Reference value :  1.73118e-04
 Reference value :  1.73250e-04
 Reference value :  1.73250e-04
 Reference value :  1.73250e-04
 Reference value :  1.73251e-04
 Reference value :  1.73252e-04
 Reference value :  1.73254e-04
 Reference value :  1.73255e-04
 Reference value :  1.73258e-04
 Reference value :  1.73272e-04
 Reference value :  1.73483e-04
 Reference value :  1.73500e-04
 Reference value :  1.73500e-04
 Reference value :  1.73501e-04
 Reference value :  1.73502e-04
 Reference value :  1.73503e-04
 Reference value :  1.73505e-04
 Reference value :  1.73506e-04
 Reference value :  1.73507e-04
 Reference value :  1.73509e-04
 Reference value :  1.73511e-04
 Reference value :  1.73519e-04
 Reference value :  1.73581e-04
 Reference value :  1.73750e-04
 Reference value :  1.73750e-04
 Reference value :  1.73750e-04
 Reference value :  1.73750e-04
 Reference value :  1.73751e-04
 Reference value :  1.73752e-04
 Reference value :  1.73753e-04
 Reference value :  1.73754e-04
 Reference value :  1.73755e-04
 Reference value :  1.73756e-04
 Reference value :  1.73761e-04
 Reference value :  1.73804e-04
 Reference value :  1.74000e-04
 Reference value :  1.74000e-04
 Reference value :  1.74000e-04
 Reference value :  1.74001e-04
 Reference value :  1.74001e-04
 Reference value :  1.74002e-04
 Reference value :  1.74003e-04
 Reference value :  1.74004e-04
 Reference value :  1.74006e-04
 Reference value :  1.74007e-04
 Reference value :  1.74010e-04
 Reference value :  1.74011e-04
 Reference value :  1.74015e-04
 Reference value :  1.74018e-04
 Reference value :  1.74027e-04
 Reference value :  1.74049e-04
 Reference value :  1.74066e-04
 Reference value :  1.74083e-04
 Reference value :  1.74114e-04
 Reference value :  1.74157e-04
 Reference value :  1.74166e-04
 Reference value :  1.74185e-04
 Reference value :  1.74201e-04
 Reference value :  1.74250e-04
 Reference value :  1.74250e-04
 Reference value :  1.74250e-04
 Reference value :  1.74251e-04
 Reference value :  1.74252e-04
 Reference value :  1.74253e-04
 Reference value :  1.74254e-04
 Reference value :  1.74256e-04
 Reference value :  1.74262e-04
 Reference value :  1.74371e-04
 Reference value :  1.74500e-04
 Reference value :  1.74500e-04
 Reference value :  1.74502e-04
 Reference value :  1.74503e-04
 Reference value :  1.74505e-04
 Reference value :  1.74508e-04
 Reference value :  1.74511e-04
 Reference value :  1.74545e-04
 Reference value :  1.74750e-04
 Reference value :  1.74750e-04
 Reference value :  1.74750e-04
 Reference value :  1.74752e-04
 Reference value :  1.74753e-04
 Reference value :  1.74754e-04
 Reference value :  1.74755e-04
 Reference value :  1.74756e-04
 Reference value :  1.74759e-04
 Reference value :  1.74781e-04
 Reference value :  1.75000e-04
 Reference value :  1.75000e-04
 Reference value :  1.75001e-04
 Reference value :  1.75002e-04
 Reference value :  1.75003e-04
 Reference value :  1.75005e-04
 Reference value :  1.75007e-04
 Reference value :  1.75010e-04
 Reference value :  1.75013e-04
 Reference value :  1.75014e-04
 Reference value :  1.75017e-04
 Reference value :  1.75023e-04
 Reference value :  1.75042e-04
 Reference value :  1.75053e-04
 Reference value :  1.75062e-04
 Reference value :  1.75080e-04
 Reference value :  1.75130e-04
 Reference value :  1.75250e-04
 Reference value :  1.75250e-04
 Reference value :  1.75250e-04
 Reference value :  1.75251e-04
 Reference value :  1.75251e-04
 Reference value :  1.75253e-04
 Reference value :  1.75254e-04
 Reference value :  1.75255e-04
 Reference value :  1.75256e-04
 Reference value :  1.75259e-04
 Reference value :  1.75265e-04
 Reference value :  1.75311e-04
 Reference value :  1.75500e-04
 Reference value :  1.75500e-04
 Reference value :  1.75500e-04
 Reference value :  1.75500e-04
 Reference value :  1.75501e-04
 Reference value :  1.75501e-04
 Reference value :  1.75502e-04
 Reference value :  1.75503e-04
 Reference value :  1.75504e-04
 Reference value :  1.75505e-04
 Reference value :  1.75507e-04
 Reference value :  1.75508e-04
 Reference value :  1.75510e-04
 Reference value :  1.75511e-04
 Reference value :  1.75519e-04
 Reference value :  1.75554e-04
 Reference value :  1.75750e-04
 Reference value :  1.75750e-04
 Reference value :  1.75750e-04
 Reference value :  1.75750e-04
 Reference value :  1.75751e-04
 Reference value :  1.75752e-04
 Reference value :  1.75753e-04
 Reference value :  1.75754e-04
 Reference value :  1.75755e-04
 Reference value :  1.75757e-04
 Reference value :  1.75760e-04
 Reference value :  1.75767e-04
 Reference value :  1.75820e-04
 Reference value :  1.76000e-04
 Reference value :  1.76000e-04
 Reference value :  1.76000e-04
 Reference value :  1.76000e-04
 Reference value :  1.76000e-04
 Reference value :  1.76001e-04
 Reference value :  1.76002e-04
 Reference value :  1.76003e-04
 Reference value :  1.76003e-04
 Reference value :  1.76005e-04
 Reference value :  1.76006e-04
 Reference value :  1.76008e-04
 Reference value :  1.76010e-04
 Reference value :  1.76013e-04
 Reference value :  1.76014e-04
 Reference value :  1.76015e-04
 Reference value :  1.76017e-04
 Reference value :  1.76019e-04
 Reference value :  1.76027e-04
 Reference value :  1.76041e-04
 Reference value :  1.76047e-04
 Reference value :  1.76052e-04
 Reference value :  1.76068e-04
 Reference value :  1.76123e-04
 Reference value :  1.76250e-04
 Reference value :  1.76250e-04
 Reference value :  1.76250e-04
 Reference value :  1.76251e-04
 Reference value :  1.76253e-04
 Reference value :  1.76253e-04
 Reference value :  1.76254e-04
 Reference value :  1.76255e-04
 Reference value :  1.76258e-04
 Reference value :  1.76265e-04
 Reference value :  1.76314e-04
 Reference value :  1.76500e-04
 Reference value :  1.76500e-04
 Reference value :  1.76500e-04
 Reference value :  1.76500e-04
 Reference value :  1.76501e-04
 Reference value :  1.76502e-04
 Reference value :  1.76503e-04
 Reference value :  1.76505e-04
 Reference value :  1.76506e-04
 Reference value :  1.76508e-04
 Reference value :  1.76511e-04
 Reference value :  1.76545e-04
 Reference value :  1.76750e-04
 Reference value :  1.76750e-04
 Reference value :  1.76751e-04
 Reference value :  1.76753e-04
 Reference value :  1.76754e-04
 Reference value :  1.76755e-04
 Reference value :  1.76756e-04
 Reference value :  1.76761e-04
 Reference value :  1.76770e-04
 Reference value :  1.77000e-04
 Reference value :  1.77000e-04
 Reference value :  1.77000e-04
 Reference value :  1.77001e-04
 Reference value :  1.77003e-04
 Reference value :  1.77004e-04
 Reference value :  1.77005e-04
 Reference value :  1.77006e-04
 Reference value :  1.77008e-04
 Reference value :  1.77010e-04
 Reference value :  1.77013e-04
 Reference value :  1.77014e-04
 Reference value :  1.77016e-04
 Reference value :  1.77018e-04
 Reference value :  1.77023e-04
 Reference value :  1.77032e-04
 Reference value :  1.77042e-04
 Reference value :  1.77068e-04
 Reference value :  1.77157e-04
 Reference value :  1.77250e-04
 Reference value :  1.77250e-04
 Reference value :  1.77252e-04
 Reference value :  1.77254e-04
 Reference value :  1.77256e-04
 Reference value :  1.77285e-04
 Reference value :  1.77500e-04
 Reference value :  1.77500e-04
 Reference value :  1.77501e-04
 Reference value :  1.77502e-04
 Reference value :  1.77503e-04
 Reference value :  1.77505e-04
 Reference value :  1.77507e-04
 Reference value :  1.77508e-04
 Reference value :  1.77511e-04
 Reference value :  1.77536e-04
 Reference value :  1.77750e-04
 Reference value :  1.77750e-04
 Reference value :  1.77750e-04
 Reference value :  1.77751e-04
 Reference value :  1.77751e-04
 Reference value :  1.77753e-04
 Reference value :  1.77754e-04
 Reference value :  1.77755e-04
 Reference value :  1.77756e-04
 Reference value :  1.77759e-04
 Reference value :  1.77767e-04
 Reference value :  1.77781e-04
 Reference value :  1.77866e-04
 Reference value :  1.78000e-04
 Reference value :  1.78000e-04
 Reference value :  1.78000e-04
 Reference value :  1.78001e-04
 Reference value :  1.78003e-04
 Reference value :  1.78004e-04
 Reference value :  1.78006e-04
 Reference value :  1.78008e-04
 Reference value :  1.78010e-04
 Reference value :  1.78017e-04
 Reference value :  1.78047e-04
 Reference value :  1.78106e-04
 Reference value :  1.78123e-04
 Reference value :  1.78159e-04
 Reference value :  1.78250e-04
 Reference value :  1.78250e-04
 Reference value :  1.78251e-04
 Reference value :  1.78252e-04
 Reference value :  1.78255e-04
 Reference value :  1.78259e-04
 Reference value :  1.78335e-04
No. of Data Rows : 25818
ngspice-44 done
