
Note: Compatibility modes selected: hs a


Circuit: ** sch_path: /home/ece/cace/sar-adc-using-sky130-pdk/runs/run_2025-09-12_02-07-50/parameters/dnl/run_0/sar_output_dnl.sch

option SCALE: Scale is set to 1e-06 for instance and model parameters
option SCALE: Scale is set to 1e-06 for instance and model parameters
option SCALE: Scale is set to 1e-06 for instance and model parameters
option SCALE: Scale is set to 1e-06 for instance and model parameters
Doing analysis at TEMP = 27.000000 and TNOM = 27.000000

Using KLU as Direct Linear Solver
Operating point simulation skipped by 'uic',
  now using transient initial conditions.
 Reference value :  1.00000e-12
 Reference value :  1.02772e-12
 Reference value :  1.08316e-12
 Reference value :  1.19404e-12
 Reference value :  1.33842e-12
 Reference value :  1.62719e-12
 Reference value :  2.20473e-12
 Reference value :  3.03965e-12
 Reference value :  3.94592e-12
 Reference value :  5.16905e-12
 Reference value :  6.92147e-12
 Reference value :  1.02794e-11
 Reference value :  1.42717e-11
 Reference value :  2.10145e-11
 Reference value :  2.79686e-11
 Reference value :  3.70246e-11
 Reference value :  4.86353e-11
 Reference value :  6.51400e-11
 Reference value :  8.57277e-11
 Reference value :  1.00000e-10
 Reference value :  1.01207e-10
 Reference value :  1.03622e-10
 Reference value :  1.08451e-10
 Reference value :  1.18110e-10
 Reference value :  1.37427e-10
 Reference value :  1.76061e-10
 Reference value :  2.53329e-10
 Reference value :  4.05271e-10
 Reference value :  5.67073e-10
 Reference value :  8.32576e-10
 Reference value :  1.18595e-09
 Reference value :  1.59526e-09
 Reference value :  2.27423e-09
 Reference value :  2.96641e-09
 Reference value :  4.01138e-09
 Reference value :  4.93360e-09
 Reference value :  5.89569e-09
 Reference value :  6.78358e-09
 Reference value :  7.91320e-09
 Reference value :  9.12680e-09
 Reference value :  1.14491e-08
 Reference value :  1.55539e-08
 Reference value :  1.99250e-08
 Reference value :  2.42504e-08
 Reference value :  2.84532e-08
 Reference value :  3.28010e-08
 Reference value :  3.92805e-08
 Reference value :  4.52866e-08
 Reference value :  4.90596e-08
 Reference value :  5.37115e-08
 Reference value :  6.02152e-08
 Reference value :  6.96288e-08
 Reference value :  8.84560e-08
 Reference value :  1.26110e-07
 Reference value :  1.93860e-07
 Reference value :  2.50100e-07
 Reference value :  2.50110e-07
 Reference value :  2.50130e-07
 Reference value :  2.50170e-07
 Reference value :  2.50200e-07
 Reference value :  2.50201e-07
 Reference value :  2.50202e-07
 Reference value :  2.50204e-07
 Reference value :  2.50208e-07
 Reference value :  2.50216e-07
 Reference value :  2.50233e-07
 Reference value :  2.50266e-07
 Reference value :  2.50332e-07
 Reference value :  2.50439e-07
 Reference value :  2.50621e-07
 Reference value :  2.50815e-07
 Reference value :  2.51150e-07
 Reference value :  2.51595e-07
 Reference value :  2.52132e-07
 Reference value :  2.52729e-07
 Reference value :  2.53372e-07
 Reference value :  2.54223e-07
 Reference value :  2.55151e-07
 Reference value :  2.56034e-07
 Reference value :  2.56924e-07
 Reference value :  2.57891e-07
 Reference value :  2.58821e-07
 Reference value :  2.60347e-07
 Reference value :  2.62159e-07
 Reference value :  2.64656e-07
 Reference value :  2.68324e-07
 Reference value :  2.72986e-07
 Reference value :  2.82310e-07
 Reference value :  2.99753e-07
 Reference value :  3.28818e-07
 Reference value :  3.86946e-07
 Reference value :  5.00000e-07
 Reference value :  5.00010e-07
 Reference value :  5.00030e-07
 Reference value :  5.00070e-07
 Reference value :  5.00100e-07
 Reference value :  5.00104e-07
 Reference value :  5.00113e-07
 Reference value :  5.00130e-07
 Reference value :  5.00165e-07
 Reference value :  5.00234e-07
 Reference value :  5.00372e-07
 Reference value :  5.00573e-07
 Reference value :  5.00954e-07
 Reference value :  5.01538e-07
 Reference value :  5.02098e-07
 Reference value :  5.02756e-07
 Reference value :  5.03473e-07
 Reference value :  5.04378e-07
 Reference value :  5.05193e-07
 Reference value :  5.06062e-07
 Reference value :  5.07193e-07
 Reference value :  5.08302e-07
 Reference value :  5.10254e-07
 Reference value :  5.12415e-07
 Reference value :  5.14536e-07
 Reference value :  5.16800e-07
 Reference value :  5.19246e-07
 Reference value :  5.21506e-07
 Reference value :  5.24451e-07
 Reference value :  5.29125e-07
 Reference value :  5.36718e-07
 Reference value :  5.47564e-07
 Reference value :  5.69258e-07
 Reference value :  6.04226e-07
 Reference value :  6.74013e-07
 Reference value :  7.50100e-07
 Reference value :  7.50110e-07
 Reference value :  7.50130e-07
 Reference value :  7.50170e-07
 Reference value :  7.50200e-07
 Reference value :  7.50201e-07
 Reference value :  7.50202e-07
 Reference value :  7.50205e-07
 Reference value :  7.50211e-07
 Reference value :  7.50223e-07
 Reference value :  7.50247e-07
 Reference value :  7.50295e-07
 Reference value :  7.50390e-07
 Reference value :  7.50581e-07
 Reference value :  7.50959e-07
 Reference value :  7.51572e-07
 Reference value :  7.52191e-07
 Reference value :  7.52840e-07
 Reference value :  7.53542e-07
 Reference value :  7.54448e-07
 Reference value :  7.55182e-07
 Reference value :  7.56016e-07
 Reference value :  7.56745e-07
 Reference value :  7.57552e-07
 Reference value :  7.58569e-07
 Reference value :  7.59662e-07
 Reference value :  7.60742e-07
 Reference value :  7.62524e-07
 Reference value :  7.64158e-07
 Reference value :  7.67176e-07
 Reference value :  7.70212e-07
 Reference value :  7.74952e-07
 Reference value :  7.83028e-07
 Reference value :  7.93727e-07
 Reference value :  8.12238e-07
 Reference value :  8.44465e-07
 Reference value :  9.01209e-07
 Reference value :  1.00000e-06
 Reference value :  1.00001e-06
 Reference value :  1.00003e-06
 Reference value :  1.00007e-06
 Reference value :  1.00010e-06
 Reference value :  1.00010e-06
 Reference value :  1.00011e-06
 Reference value :  1.00013e-06
 Reference value :  1.00017e-06
 Reference value :  1.00023e-06
 Reference value :  1.00037e-06
 Reference value :  1.00058e-06
 Reference value :  1.00096e-06
 Reference value :  1.00154e-06
 Reference value :  1.00210e-06
 Reference value :  1.00278e-06
 Reference value :  1.00354e-06
 Reference value :  1.00443e-06
 Reference value :  1.00528e-06
 Reference value :  1.00604e-06
 Reference value :  1.00684e-06
 Reference value :  1.00758e-06
 Reference value :  1.00841e-06
 Reference value :  1.00934e-06
 Reference value :  1.01049e-06
 Reference value :  1.01235e-06
 Reference value :  1.01460e-06
 Reference value :  1.01631e-06
 Reference value :  1.01818e-06
 Reference value :  1.02030e-06
 Reference value :  1.02225e-06
 Reference value :  1.02367e-06
 Reference value :  1.02501e-06
 Reference value :  1.02655e-06
 Reference value :  1.02810e-06
 Reference value :  1.02979e-06
 Reference value :  1.03229e-06
 Reference value :  1.03498e-06
 Reference value :  1.04011e-06
 Reference value :  1.04774e-06
 Reference value :  1.06011e-06
 Reference value :  1.08483e-06
 Reference value :  1.12623e-06
 Reference value :  1.20703e-06
 Reference value :  1.25010e-06
 Reference value :  1.25011e-06
 Reference value :  1.25013e-06
 Reference value :  1.25017e-06
 Reference value :  1.25020e-06
 Reference value :  1.25020e-06
 Reference value :  1.25020e-06
 Reference value :  1.25021e-06
 Reference value :  1.25021e-06
 Reference value :  1.25022e-06
 Reference value :  1.25025e-06
 Reference value :  1.25029e-06
 Reference value :  1.25039e-06
 Reference value :  1.25057e-06
 Reference value :  1.25090e-06
 Reference value :  1.25154e-06
 Reference value :  1.25213e-06
 Reference value :  1.25276e-06
 Reference value :  1.25347e-06
 Reference value :  1.25448e-06
 Reference value :  1.25525e-06
 Reference value :  1.25607e-06
 Reference value :  1.25711e-06
 Reference value :  1.25812e-06
 Reference value :  1.25926e-06
 Reference value :  1.26155e-06
 Reference value :  1.26380e-06
 Reference value :  1.26761e-06
 Reference value :  1.27192e-06
 Reference value :  1.28052e-06
 Reference value :  1.29774e-06
 Reference value :  1.32537e-06
 Reference value :  1.38062e-06
 Reference value :  1.49114e-06
 Reference value :  1.50000e-06
 Reference value :  1.50001e-06
 Reference value :  1.50003e-06
 Reference value :  1.50007e-06
 Reference value :  1.50010e-06
 Reference value :  1.50010e-06
 Reference value :  1.50011e-06
 Reference value :  1.50013e-06
 Reference value :  1.50016e-06
 Reference value :  1.50023e-06
 Reference value :  1.50037e-06
 Reference value :  1.50057e-06
 Reference value :  1.50093e-06
 Reference value :  1.50144e-06
 Reference value :  1.50196e-06
 Reference value :  1.50257e-06
 Reference value :  1.50328e-06
 Reference value :  1.50403e-06
 Reference value :  1.50495e-06
 Reference value :  1.50586e-06
 Reference value :  1.50684e-06
 Reference value :  1.50810e-06
 Reference value :  1.50937e-06
 Reference value :  1.51068e-06
 Reference value :  1.51201e-06
 Reference value :  1.51368e-06
 Reference value :  1.51505e-06
 Reference value :  1.51665e-06
 Reference value :  1.51820e-06
 Reference value :  1.51999e-06
 Reference value :  1.52359e-06
 Reference value :  1.52941e-06
 Reference value :  1.53979e-06
 Reference value :  1.56048e-06
 Reference value :  1.60187e-06
 Reference value :  1.68464e-06
 Reference value :  1.75010e-06
 Reference value :  1.75011e-06
 Reference value :  1.75013e-06
 Reference value :  1.75017e-06
 Reference value :  1.75020e-06
 Reference value :  1.75020e-06
 Reference value :  1.75020e-06
 Reference value :  1.75021e-06
 Reference value :  1.75021e-06
 Reference value :  1.75022e-06
 Reference value :  1.75025e-06
 Reference value :  1.75029e-06
 Reference value :  1.75039e-06
 Reference value :  1.75057e-06
 Reference value :  1.75090e-06
 Reference value :  1.75156e-06
 Reference value :  1.75215e-06
 Reference value :  1.75278e-06
 Reference value :  1.75348e-06
 Reference value :  1.75439e-06
 Reference value :  1.75514e-06
 Reference value :  1.75599e-06
 Reference value :  1.75671e-06
 Reference value :  1.75752e-06
 Reference value :  1.75856e-06
 Reference value :  1.75967e-06
 Reference value :  1.76081e-06
 Reference value :  1.76250e-06
 Reference value :  1.76459e-06
 Reference value :  1.76721e-06
 Reference value :  1.77082e-06
 Reference value :  1.77536e-06
 Reference value :  1.78444e-06
 Reference value :  1.79865e-06
 Reference value :  1.82706e-06
 Reference value :  1.88389e-06
 Reference value :  1.99754e-06
 Reference value :  2.00000e-06
 Reference value :  2.00001e-06
 Reference value :  2.00003e-06
 Reference value :  2.00007e-06
 Reference value :  2.00010e-06
 Reference value :  2.00010e-06
 Reference value :  2.00011e-06
 Reference value :  2.00013e-06
 Reference value :  2.00017e-06
 Reference value :  2.00023e-06
 Reference value :  2.00037e-06
 Reference value :  2.00057e-06
 Reference value :  2.00093e-06
 Reference value :  2.00145e-06
 Reference value :  2.00198e-06
 Reference value :  2.00262e-06
 Reference value :  2.00338e-06
 Reference value :  2.00415e-06
 Reference value :  2.00498e-06
 Reference value :  2.00570e-06
 Reference value :  2.00649e-06
 Reference value :  2.00720e-06
 Reference value :  2.00804e-06
 Reference value :  2.00883e-06
 Reference value :  2.00991e-06
 Reference value :  2.01108e-06
 Reference value :  2.01313e-06
 Reference value :  2.01599e-06
 Reference value :  2.01790e-06
 Reference value :  2.02002e-06
 Reference value :  2.02198e-06
 Reference value :  2.02344e-06
 Reference value :  2.02481e-06
 Reference value :  2.02604e-06
 Reference value :  2.02741e-06
 Reference value :  2.02904e-06
 Reference value :  2.03100e-06
 Reference value :  2.03376e-06
 Reference value :  2.03718e-06
 Reference value :  2.04402e-06
 Reference value :  2.05447e-06
 Reference value :  2.06905e-06
 Reference value :  2.09400e-06
 Reference value :  2.12821e-06
 Reference value :  2.16609e-06
 Reference value :  2.21153e-06
 Reference value :  2.25010e-06
 Reference value :  2.25011e-06
 Reference value :  2.25013e-06
 Reference value :  2.25017e-06
 Reference value :  2.25020e-06
 Reference value :  2.25020e-06
 Reference value :  2.25020e-06
 Reference value :  2.25021e-06
 Reference value :  2.25021e-06
 Reference value :  2.25022e-06
 Reference value :  2.25025e-06
 Reference value :  2.25029e-06
 Reference value :  2.25039e-06
 Reference value :  2.25057e-06
 Reference value :  2.25090e-06
 Reference value :  2.25155e-06
 Reference value :  2.25214e-06
 Reference value :  2.25278e-06
 Reference value :  2.25348e-06
 Reference value :  2.25440e-06
 Reference value :  2.25513e-06
 Reference value :  2.25597e-06
 Reference value :  2.25683e-06
 Reference value :  2.25773e-06
 Reference value :  2.25891e-06
 Reference value :  2.26080e-06
 Reference value :  2.26323e-06
 Reference value :  2.26631e-06
 Reference value :  2.27062e-06
 Reference value :  2.27740e-06
 Reference value :  2.29095e-06
 Reference value :  2.31807e-06
 Reference value :  2.37229e-06
 Reference value :  2.42509e-06
 Reference value :  2.48783e-06
 Reference value :  2.50000e-06
 Reference value :  2.50001e-06
 Reference value :  2.50003e-06
 Reference value :  2.50007e-06
 Reference value :  2.50010e-06
 Reference value :  2.50010e-06
 Reference value :  2.50011e-06
 Reference value :  2.50013e-06
 Reference value :  2.50017e-06
 Reference value :  2.50023e-06
 Reference value :  2.50037e-06
 Reference value :  2.50057e-06
 Reference value :  2.50093e-06
 Reference value :  2.50145e-06
 Reference value :  2.50198e-06
 Reference value :  2.50259e-06
 Reference value :  2.50330e-06
 Reference value :  2.50406e-06
 Reference value :  2.50498e-06
 Reference value :  2.50590e-06
 Reference value :  2.50689e-06
 Reference value :  2.50813e-06
 Reference value :  2.50934e-06
 Reference value :  2.51064e-06
 Reference value :  2.51197e-06
 Reference value :  2.51359e-06
 Reference value :  2.51494e-06
 Reference value :  2.51651e-06
 Reference value :  2.51804e-06
 Reference value :  2.51982e-06
 Reference value :  2.52336e-06
 Reference value :  2.52926e-06
 Reference value :  2.53973e-06
 Reference value :  2.56069e-06
 Reference value :  2.60259e-06
 Reference value :  2.68639e-06
 Reference value :  2.75010e-06
 Reference value :  2.75011e-06
 Reference value :  2.75013e-06
 Reference value :  2.75017e-06
 Reference value :  2.75020e-06
 Reference value :  2.75020e-06
 Reference value :  2.75020e-06
 Reference value :  2.75021e-06
 Reference value :  2.75021e-06
 Reference value :  2.75022e-06
 Reference value :  2.75025e-06
 Reference value :  2.75029e-06
 Reference value :  2.75039e-06
 Reference value :  2.75057e-06
 Reference value :  2.75090e-06
 Reference value :  2.75156e-06
 Reference value :  2.75215e-06
 Reference value :  2.75278e-06
 Reference value :  2.75349e-06
 Reference value :  2.75440e-06
 Reference value :  2.75514e-06
 Reference value :  2.75598e-06
 Reference value :  2.75670e-06
 Reference value :  2.75751e-06
 Reference value :  2.75854e-06
 Reference value :  2.75965e-06
 Reference value :  2.76076e-06
 Reference value :  2.76249e-06
 Reference value :  2.76448e-06
 Reference value :  2.76718e-06
 Reference value :  2.77068e-06
 Reference value :  2.77526e-06
 Reference value :  2.78443e-06
 Reference value :  2.79763e-06
 Reference value :  2.82405e-06
 Reference value :  2.87689e-06
 Reference value :  2.98256e-06
 Reference value :  3.00000e-06
 Reference value :  3.00001e-06
 Reference value :  3.00003e-06
 Reference value :  3.00007e-06
 Reference value :  3.00010e-06
 Reference value :  3.00010e-06
 Reference value :  3.00011e-06
 Reference value :  3.00013e-06
 Reference value :  3.00017e-06
 Reference value :  3.00023e-06
 Reference value :  3.00037e-06
 Reference value :  3.00057e-06
 Reference value :  3.00093e-06
 Reference value :  3.00145e-06
 Reference value :  3.00198e-06
 Reference value :  3.00262e-06
 Reference value :  3.00338e-06
 Reference value :  3.00415e-06
 Reference value :  3.00498e-06
 Reference value :  3.00572e-06
 Reference value :  3.00650e-06
 Reference value :  3.00723e-06
 Reference value :  3.00806e-06
 Reference value :  3.00887e-06
 Reference value :  3.00995e-06
 Reference value :  3.01115e-06
 Reference value :  3.01296e-06
 Reference value :  3.01491e-06
 Reference value :  3.01658e-06
 Reference value :  3.01831e-06
 Reference value :  3.02019e-06
 Reference value :  3.02172e-06
 Reference value :  3.02324e-06
 Reference value :  3.02505e-06
 Reference value :  3.02677e-06
 Reference value :  3.02832e-06
 Reference value :  3.03043e-06
 Reference value :  3.03314e-06
 Reference value :  3.03595e-06
 Reference value :  3.04082e-06
 Reference value :  3.04732e-06
 Reference value :  3.05759e-06
 Reference value :  3.07415e-06
 Reference value :  3.09922e-06
 Reference value :  3.12480e-06
 Reference value :  3.15310e-06
 Reference value :  3.18690e-06
 Reference value :  3.22258e-06
 Reference value :  3.25010e-06
 Reference value :  3.25011e-06
 Reference value :  3.25013e-06
 Reference value :  3.25017e-06
 Reference value :  3.25020e-06
 Reference value :  3.25020e-06
 Reference value :  3.25020e-06
 Reference value :  3.25021e-06
 Reference value :  3.25021e-06
 Reference value :  3.25022e-06
 Reference value :  3.25025e-06
 Reference value :  3.25029e-06
 Reference value :  3.25039e-06
 Reference value :  3.25057e-06
 Reference value :  3.25090e-06
 Reference value :  3.25155e-06
 Reference value :  3.25215e-06
 Reference value :  3.25278e-06
 Reference value :  3.25349e-06
 Reference value :  3.25440e-06
 Reference value :  3.25513e-06
 Reference value :  3.25595e-06
 Reference value :  3.25681e-06
 Reference value :  3.25770e-06
 Reference value :  3.25888e-06
 Reference value :  3.26077e-06
 Reference value :  3.26321e-06
 Reference value :  3.26627e-06
 Reference value :  3.27058e-06
 Reference value :  3.27723e-06
 Reference value :  3.29052e-06
 Reference value :  3.31712e-06
 Reference value :  3.37031e-06
 Reference value :  3.47669e-06
 Reference value :  3.50000e-06
 Reference value :  3.50001e-06
 Reference value :  3.50003e-06
 Reference value :  3.50007e-06
 Reference value :  3.50010e-06
 Reference value :  3.50010e-06
 Reference value :  3.50011e-06
 Reference value :  3.50013e-06
 Reference value :  3.50016e-06
 Reference value :  3.50023e-06
 Reference value :  3.50037e-06
 Reference value :  3.50057e-06
 Reference value :  3.50093e-06
 Reference value :  3.50144e-06
 Reference value :  3.50196e-06
 Reference value :  3.50257e-06
 Reference value :  3.50328e-06
 Reference value :  3.50403e-06
 Reference value :  3.50495e-06
 Reference value :  3.50585e-06
 Reference value :  3.50684e-06
 Reference value :  3.50798e-06
 Reference value :  3.50926e-06
 Reference value :  3.51049e-06
 Reference value :  3.51175e-06
 Reference value :  3.51349e-06
 Reference value :  3.51493e-06
 Reference value :  3.51649e-06
 Reference value :  3.51806e-06
 Reference value :  3.51988e-06
 Reference value :  3.52342e-06
 Reference value :  3.52853e-06
 Reference value :  3.53876e-06
 Reference value :  3.55920e-06
 Reference value :  3.60009e-06
 Reference value :  3.68187e-06
 Reference value :  3.75010e-06
 Reference value :  3.75011e-06
 Reference value :  3.75013e-06
 Reference value :  3.75017e-06
 Reference value :  3.75020e-06
 Reference value :  3.75020e-06
 Reference value :  3.75020e-06
 Reference value :  3.75021e-06
 Reference value :  3.75021e-06
 Reference value :  3.75022e-06
 Reference value :  3.75025e-06
 Reference value :  3.75029e-06
 Reference value :  3.75039e-06
 Reference value :  3.75057e-06
 Reference value :  3.75090e-06
 Reference value :  3.75156e-06
 Reference value :  3.75215e-06
 Reference value :  3.75279e-06
 Reference value :  3.75349e-06
 Reference value :  3.75440e-06
 Reference value :  3.75514e-06
 Reference value :  3.75597e-06
 Reference value :  3.75669e-06
 Reference value :  3.75749e-06
 Reference value :  3.75852e-06
 Reference value :  3.75962e-06
 Reference value :  3.76068e-06
 Reference value :  3.76245e-06
 Reference value :  3.76422e-06
 Reference value :  3.76710e-06
 Reference value :  3.77035e-06
 Reference value :  3.77502e-06
 Reference value :  3.78354e-06
 Reference value :  3.79473e-06
 Reference value :  3.81553e-06
 Reference value :  3.85502e-06
 Reference value :  3.91941e-06
 Reference value :  4.00000e-06
 Reference value :  4.00001e-06
 Reference value :  4.00003e-06
 Reference value :  4.00007e-06
 Reference value :  4.00010e-06
 Reference value :  4.00010e-06
 Reference value :  4.00011e-06
 Reference value :  4.00013e-06
 Reference value :  4.00017e-06
 Reference value :  4.00023e-06
 Reference value :  4.00037e-06
 Reference value :  4.00057e-06
 Reference value :  4.00093e-06
 Reference value :  4.00145e-06
 Reference value :  4.00198e-06
 Reference value :  4.00262e-06
 Reference value :  4.00338e-06
 Reference value :  4.00415e-06
 Reference value :  4.00498e-06
 Reference value :  4.00570e-06
 Reference value :  4.00648e-06
 Reference value :  4.00720e-06
 Reference value :  4.00804e-06
 Reference value :  4.00886e-06
 Reference value :  4.00995e-06
 Reference value :  4.01118e-06
 Reference value :  4.01322e-06
 Reference value :  4.01459e-06
 Reference value :  4.01612e-06
 Reference value :  4.01768e-06
 Reference value :  4.01941e-06
 Reference value :  4.02102e-06
 Reference value :  4.02236e-06
 Reference value :  4.02382e-06
 Reference value :  4.02515e-06
 Reference value :  4.02664e-06
 Reference value :  4.02814e-06
 Reference value :  4.02973e-06
 Reference value :  4.03235e-06
 Reference value :  4.03536e-06
 Reference value :  4.04137e-06
 Reference value :  4.05237e-06
 Reference value :  4.06971e-06
 Reference value :  4.08825e-06
 Reference value :  4.10641e-06
 Reference value :  4.12483e-06
 Reference value :  4.14112e-06
 Reference value :  4.15016e-06
 Reference value :  4.15900e-06
 Reference value :  4.16830e-06
 Reference value :  4.18540e-06
 Reference value :  4.20627e-06
 Reference value :  4.23864e-06
 Reference value :  4.25010e-06
 Reference value :  4.25011e-06
 Reference value :  4.25013e-06
 Reference value :  4.25017e-06
 Reference value :  4.25020e-06
 Reference value :  4.25020e-06
 Reference value :  4.25020e-06
 Reference value :  4.25021e-06
 Reference value :  4.25021e-06
 Reference value :  4.25022e-06
 Reference value :  4.25025e-06
 Reference value :  4.25029e-06
 Reference value :  4.25039e-06
 Reference value :  4.25058e-06
 Reference value :  4.25091e-06
 Reference value :  4.25157e-06
 Reference value :  4.25217e-06
 Reference value :  4.25282e-06
 Reference value :  4.25352e-06
 Reference value :  4.25442e-06
 Reference value :  4.25515e-06
 Reference value :  4.25598e-06
 Reference value :  4.25683e-06
 Reference value :  4.25772e-06
 Reference value :  4.25891e-06
 Reference value :  4.26073e-06
 Reference value :  4.26320e-06
 Reference value :  4.26625e-06
 Reference value :  4.27058e-06
 Reference value :  4.27702e-06
 Reference value :  4.28989e-06
 Reference value :  4.31565e-06
 Reference value :  4.36716e-06
 Reference value :  4.47018e-06
 Reference value :  4.50000e-06
 Reference value :  4.50001e-06
 Reference value :  4.50003e-06
 Reference value :  4.50007e-06
 Reference value :  4.50010e-06
 Reference value :  4.50010e-06
 Reference value :  4.50011e-06
 Reference value :  4.50013e-06
 Reference value :  4.50016e-06
 Reference value :  4.50023e-06
 Reference value :  4.50037e-06
 Reference value :  4.50057e-06
 Reference value :  4.50093e-06
 Reference value :  4.50143e-06
 Reference value :  4.50196e-06
 Reference value :  4.50260e-06
 Reference value :  4.50337e-06
 Reference value :  4.50412e-06
 Reference value :  4.50493e-06
 Reference value :  4.50583e-06
 Reference value :  4.50675e-06
 Reference value :  4.50786e-06
 Reference value :  4.50905e-06
 Reference value :  4.51021e-06
 Reference value :  4.51143e-06
 Reference value :  4.51309e-06
 Reference value :  4.51449e-06
 Reference value :  4.51600e-06
 Reference value :  4.51755e-06
 Reference value :  4.51934e-06
 Reference value :  4.52277e-06
 Reference value :  4.52779e-06
 Reference value :  4.53784e-06
 Reference value :  4.55792e-06
 Reference value :  4.59810e-06
 Reference value :  4.67846e-06
 Reference value :  4.75010e-06
 Reference value :  4.75011e-06
 Reference value :  4.75013e-06
 Reference value :  4.75017e-06
 Reference value :  4.75020e-06
 Reference value :  4.75020e-06
 Reference value :  4.75020e-06
 Reference value :  4.75021e-06
 Reference value :  4.75021e-06
 Reference value :  4.75022e-06
 Reference value :  4.75025e-06
 Reference value :  4.75029e-06
 Reference value :  4.75039e-06
 Reference value :  4.75057e-06
 Reference value :  4.75090e-06
 Reference value :  4.75155e-06
 Reference value :  4.75215e-06
 Reference value :  4.75278e-06
 Reference value :  4.75348e-06
 Reference value :  4.75440e-06
 Reference value :  4.75515e-06
 Reference value :  4.75598e-06
 Reference value :  4.75671e-06
 Reference value :  4.75751e-06
 Reference value :  4.75855e-06
 Reference value :  4.75965e-06
 Reference value :  4.76186e-06
 Reference value :  4.76418e-06
 Reference value :  4.76826e-06
 Reference value :  4.77263e-06
 Reference value :  4.78139e-06
 Reference value :  4.79889e-06
 Reference value :  4.83391e-06
 Reference value :  4.90394e-06
 Reference value :  5.00000e-06
 Reference value :  5.00001e-06
 Reference value :  5.00003e-06
 Reference value :  5.00007e-06
 Reference value :  5.00010e-06
 Reference value :  5.00010e-06
 Reference value :  5.00011e-06
 Reference value :  5.00013e-06
 Reference value :  5.00016e-06
 Reference value :  5.00023e-06
 Reference value :  5.00037e-06
 Reference value :  5.00057e-06
 Reference value :  5.00093e-06
 Reference value :  5.00143e-06
 Reference value :  5.00196e-06
 Reference value :  5.00260e-06
 Reference value :  5.00336e-06
 Reference value :  5.00412e-06
 Reference value :  5.00497e-06
 Reference value :  5.00572e-06
 Reference value :  5.00653e-06
 Reference value :  5.00734e-06
 Reference value :  5.00833e-06
 Reference value :  5.00924e-06
 Reference value :  5.01050e-06
 Reference value :  5.01208e-06
 Reference value :  5.01443e-06
 Reference value :  5.01784e-06
 Reference value :  5.02020e-06
 Reference value :  5.02227e-06
 Reference value :  5.02424e-06
 Reference value :  5.02618e-06
 Reference value :  5.02805e-06
 Reference value :  5.03034e-06
 Reference value :  5.03250e-06
 Reference value :  5.03545e-06
 Reference value :  5.03888e-06
 Reference value :  5.04398e-06
 Reference value :  5.05131e-06
 Reference value :  5.06227e-06
 Reference value :  5.07609e-06
 Reference value :  5.09143e-06
 Reference value :  5.11569e-06
 Reference value :  5.14206e-06
 Reference value :  5.16689e-06
 Reference value :  5.18525e-06
 Reference value :  5.20219e-06
 Reference value :  5.21998e-06
 Reference value :  5.23514e-06
 Reference value :  5.25010e-06
 Reference value :  5.25011e-06
 Reference value :  5.25013e-06
 Reference value :  5.25017e-06
 Reference value :  5.25020e-06
 Reference value :  5.25020e-06
 Reference value :  5.25020e-06
 Reference value :  5.25021e-06
 Reference value :  5.25021e-06
 Reference value :  5.25022e-06
 Reference value :  5.25025e-06
 Reference value :  5.25029e-06
 Reference value :  5.25039e-06
 Reference value :  5.25058e-06
 Reference value :  5.25091e-06
 Reference value :  5.25158e-06
 Reference value :  5.25218e-06
 Reference value :  5.25283e-06
 Reference value :  5.25353e-06
 Reference value :  5.25443e-06
 Reference value :  5.25513e-06
 Reference value :  5.25592e-06
 Reference value :  5.25679e-06
 Reference value :  5.25767e-06
 Reference value :  5.25882e-06
 Reference value :  5.26081e-06
 Reference value :  5.26323e-06
 Reference value :  5.26630e-06
 Reference value :  5.27059e-06
 Reference value :  5.27728e-06
 Reference value :  5.29068e-06
 Reference value :  5.31747e-06
 Reference value :  5.37105e-06
 Reference value :  5.45345e-06
 Reference value :  5.50000e-06
 Reference value :  5.50001e-06
 Reference value :  5.50003e-06
 Reference value :  5.50007e-06
 Reference value :  5.50010e-06
 Reference value :  5.50010e-06
 Reference value :  5.50011e-06
 Reference value :  5.50013e-06
 Reference value :  5.50016e-06
 Reference value :  5.50023e-06
 Reference value :  5.50037e-06
 Reference value :  5.50057e-06
 Reference value :  5.50093e-06
 Reference value :  5.50143e-06
 Reference value :  5.50196e-06
 Reference value :  5.50256e-06
 Reference value :  5.50328e-06
 Reference value :  5.50402e-06
 Reference value :  5.50495e-06
 Reference value :  5.50586e-06
 Reference value :  5.50685e-06
 Reference value :  5.50811e-06
 Reference value :  5.50926e-06
 Reference value :  5.51067e-06
 Reference value :  5.51201e-06
 Reference value :  5.51360e-06
 Reference value :  5.51529e-06
 Reference value :  5.51707e-06
 Reference value :  5.51916e-06
 Reference value :  5.52269e-06
 Reference value :  5.52785e-06
 Reference value :  5.53726e-06
 Reference value :  5.55451e-06
 Reference value :  5.58563e-06
 Reference value :  5.64646e-06
 Reference value :  5.75010e-06
 Reference value :  5.75011e-06
 Reference value :  5.75013e-06
 Reference value :  5.75017e-06
 Reference value :  5.75020e-06
 Reference value :  5.75020e-06
 Reference value :  5.75020e-06
 Reference value :  5.75021e-06
 Reference value :  5.75021e-06
 Reference value :  5.75022e-06
 Reference value :  5.75025e-06
 Reference value :  5.75029e-06
 Reference value :  5.75039e-06
 Reference value :  5.75058e-06
 Reference value :  5.75091e-06
 Reference value :  5.75158e-06
 Reference value :  5.75218e-06
 Reference value :  5.75283e-06
 Reference value :  5.75353e-06
 Reference value :  5.75443e-06
 Reference value :  5.75515e-06
 Reference value :  5.75596e-06
 Reference value :  5.75667e-06
 Reference value :  5.75747e-06
 Reference value :  5.75849e-06
 Reference value :  5.75957e-06
 Reference value :  5.76066e-06
 Reference value :  5.76241e-06
 Reference value :  5.76423e-06
 Reference value :  5.76708e-06
 Reference value :  5.77035e-06
 Reference value :  5.77499e-06
 Reference value :  5.78410e-06
 Reference value :  5.79598e-06
 Reference value :  5.81932e-06
 Reference value :  5.86391e-06
 Reference value :  5.95017e-06
 Reference value :  6.00000e-06
 Reference value :  6.00001e-06
 Reference value :  6.00003e-06
 Reference value :  6.00007e-06
 Reference value :  6.00010e-06
 Reference value :  6.00010e-06
 Reference value :  6.00011e-06
 Reference value :  6.00013e-06
 Reference value :  6.00017e-06
 Reference value :  6.00023e-06
 Reference value :  6.00037e-06
 Reference value :  6.00057e-06
 Reference value :  6.00093e-06
 Reference value :  6.00145e-06
 Reference value :  6.00198e-06
 Reference value :  6.00262e-06
 Reference value :  6.00338e-06
 Reference value :  6.00415e-06
 Reference value :  6.00498e-06
 Reference value :  6.00571e-06
 Reference value :  6.00649e-06
 Reference value :  6.00722e-06
 Reference value :  6.00805e-06
 Reference value :  6.00896e-06
 Reference value :  6.01001e-06
 Reference value :  6.01161e-06
 Reference value :  6.01350e-06
 Reference value :  6.01487e-06
 Reference value :  6.01640e-06
 Reference value :  6.01805e-06
 Reference value :  6.01997e-06
 Reference value :  6.02176e-06
 Reference value :  6.02326e-06
 Reference value :  6.02485e-06
 Reference value :  6.02619e-06
 Reference value :  6.02766e-06
 Reference value :  6.02942e-06
 Reference value :  6.03155e-06
 Reference value :  6.03418e-06
 Reference value :  6.03783e-06
 Reference value :  6.04428e-06
 Reference value :  6.04930e-06
 Reference value :  6.05512e-06
 Reference value :  6.06146e-06
 Reference value :  6.07090e-06
 Reference value :  6.08358e-06
 Reference value :  6.10599e-06
 Reference value :  6.14356e-06
 Reference value :  6.20973e-06
 Reference value :  6.25010e-06
 Reference value :  6.25011e-06
 Reference value :  6.25013e-06
 Reference value :  6.25017e-06
 Reference value :  6.25020e-06
 Reference value :  6.25020e-06
 Reference value :  6.25020e-06
 Reference value :  6.25021e-06
 Reference value :  6.25021e-06
 Reference value :  6.25022e-06
 Reference value :  6.25025e-06
 Reference value :  6.25029e-06
 Reference value :  6.25039e-06
 Reference value :  6.25058e-06
 Reference value :  6.25091e-06
 Reference value :  6.25157e-06
 Reference value :  6.25218e-06
 Reference value :  6.25282e-06
 Reference value :  6.25353e-06
 Reference value :  6.25442e-06
 Reference value :  6.25513e-06
 Reference value :  6.25594e-06
 Reference value :  6.25678e-06
 Reference value :  6.25766e-06
 Reference value :  6.25882e-06
 Reference value :  6.26065e-06
 Reference value :  6.26317e-06
 Reference value :  6.26613e-06
 Reference value :  6.27047e-06
 Reference value :  6.27676e-06
 Reference value :  6.28933e-06
 Reference value :  6.31448e-06
 Reference value :  6.36478e-06
 Reference value :  6.46537e-06
 Reference value :  6.50000e-06
 Reference value :  6.50001e-06
 Reference value :  6.50003e-06
 Reference value :  6.50007e-06
 Reference value :  6.50010e-06
 Reference value :  6.50010e-06
 Reference value :  6.50011e-06
 Reference value :  6.50013e-06
 Reference value :  6.50016e-06
 Reference value :  6.50023e-06
 Reference value :  6.50037e-06
 Reference value :  6.50057e-06
 Reference value :  6.50093e-06
 Reference value :  6.50144e-06
 Reference value :  6.50196e-06
 Reference value :  6.50256e-06
 Reference value :  6.50327e-06
 Reference value :  6.50402e-06
 Reference value :  6.50494e-06
 Reference value :  6.50584e-06
 Reference value :  6.50683e-06
 Reference value :  6.50798e-06
 Reference value :  6.50929e-06
 Reference value :  6.51052e-06
 Reference value :  6.51180e-06
 Reference value :  6.51356e-06
 Reference value :  6.51522e-06
 Reference value :  6.51688e-06
 Reference value :  6.51893e-06
 Reference value :  6.52117e-06
 Reference value :  6.52494e-06
 Reference value :  6.53044e-06
 Reference value :  6.53998e-06
 Reference value :  6.55714e-06
 Reference value :  6.58727e-06
 Reference value :  6.64397e-06
 Reference value :  6.74734e-06
 Reference value :  6.75010e-06
 Reference value :  6.75011e-06
 Reference value :  6.75013e-06
 Reference value :  6.75017e-06
 Reference value :  6.75020e-06
 Reference value :  6.75020e-06
 Reference value :  6.75020e-06
 Reference value :  6.75021e-06
 Reference value :  6.75021e-06
 Reference value :  6.75022e-06
 Reference value :  6.75025e-06
 Reference value :  6.75029e-06
 Reference value :  6.75039e-06
 Reference value :  6.75058e-06
 Reference value :  6.75091e-06
 Reference value :  6.75158e-06
 Reference value :  6.75219e-06
 Reference value :  6.75283e-06
 Reference value :  6.75353e-06
 Reference value :  6.75443e-06
 Reference value :  6.75514e-06
 Reference value :  6.75595e-06
 Reference value :  6.75666e-06
 Reference value :  6.75745e-06
 Reference value :  6.75847e-06
 Reference value :  6.75955e-06
 Reference value :  6.76063e-06
 Reference value :  6.76238e-06
 Reference value :  6.76416e-06
 Reference value :  6.76705e-06
 Reference value :  6.77029e-06
 Reference value :  6.77494e-06
 Reference value :  6.78370e-06
 Reference value :  6.79513e-06
 Reference value :  6.81687e-06
 Reference value :  6.85822e-06
 Reference value :  6.91263e-06
 Reference value :  6.95046e-06
 Reference value :  6.97217e-06
 Reference value :  6.98700e-06
 Reference value :  7.00000e-06
 Reference value :  7.00001e-06
 Reference value :  7.00003e-06
 Reference value :  7.00007e-06
 Reference value :  7.00010e-06
 Reference value :  7.00010e-06
 Reference value :  7.00011e-06
 Reference value :  7.00013e-06
 Reference value :  7.00016e-06
 Reference value :  7.00023e-06
 Reference value :  7.00037e-06
 Reference value :  7.00057e-06
 Reference value :  7.00093e-06
 Reference value :  7.00143e-06
 Reference value :  7.00196e-06
 Reference value :  7.00260e-06
 Reference value :  7.00336e-06
 Reference value :  7.00411e-06
 Reference value :  7.00495e-06
 Reference value :  7.00569e-06
 Reference value :  7.00650e-06
 Reference value :  7.00729e-06
 Reference value :  7.00826e-06
 Reference value :  7.00915e-06
 Reference value :  7.01039e-06
 Reference value :  7.01198e-06
 Reference value :  7.01426e-06
 Reference value :  7.01718e-06
 Reference value :  7.01948e-06
 Reference value :  7.02192e-06
 Reference value :  7.02368e-06
 Reference value :  7.02531e-06
 Reference value :  7.02682e-06
 Reference value :  7.02840e-06
 Reference value :  7.03022e-06
 Reference value :  7.03276e-06
 Reference value :  7.03543e-06
 Reference value :  7.03933e-06
 Reference value :  7.04341e-06
 Reference value :  7.04720e-06
 Reference value :  7.05125e-06
 Reference value :  7.05574e-06
 Reference value :  7.06472e-06
 Reference value :  7.07815e-06
 Reference value :  7.09616e-06
 Reference value :  7.11405e-06
 Reference value :  7.13471e-06
 Reference value :  7.15707e-06
 Reference value :  7.20179e-06
 Reference value :  7.25010e-06
 Reference value :  7.25011e-06
 Reference value :  7.25013e-06
 Reference value :  7.25017e-06
 Reference value :  7.25020e-06
 Reference value :  7.25020e-06
 Reference value :  7.25020e-06
 Reference value :  7.25021e-06
 Reference value :  7.25021e-06
 Reference value :  7.25022e-06
 Reference value :  7.25025e-06
 Reference value :  7.25029e-06
 Reference value :  7.25039e-06
 Reference value :  7.25058e-06
 Reference value :  7.25092e-06
 Reference value :  7.25158e-06
 Reference value :  7.25219e-06
 Reference value :  7.25284e-06
 Reference value :  7.25354e-06
 Reference value :  7.25443e-06
 Reference value :  7.25510e-06
 Reference value :  7.25586e-06
 Reference value :  7.25682e-06
 Reference value :  7.25772e-06
 Reference value :  7.25887e-06
 Reference value :  7.26107e-06
 Reference value :  7.26337e-06
 Reference value :  7.26664e-06
 Reference value :  7.27088e-06
 Reference value :  7.27848e-06
 Reference value :  7.29367e-06
 Reference value :  7.32406e-06
 Reference value :  7.38483e-06
 Reference value :  7.50000e-06
 Reference value :  7.50001e-06
 Reference value :  7.50003e-06
 Reference value :  7.50007e-06
 Reference value :  7.50010e-06
 Reference value :  7.50010e-06
 Reference value :  7.50011e-06
 Reference value :  7.50013e-06
 Reference value :  7.50017e-06
 Reference value :  7.50023e-06
 Reference value :  7.50037e-06
 Reference value :  7.50057e-06
 Reference value :  7.50093e-06
 Reference value :  7.50151e-06
 Reference value :  7.50205e-06
 Reference value :  7.50268e-06
 Reference value :  7.50339e-06
 Reference value :  7.50421e-06
 Reference value :  7.50502e-06
 Reference value :  7.50597e-06
 Reference value :  7.50696e-06
 Reference value :  7.50812e-06
 Reference value :  7.50932e-06
 Reference value :  7.51056e-06
 Reference value :  7.51183e-06
 Reference value :  7.51348e-06
 Reference value :  7.51491e-06
 Reference value :  7.51644e-06
 Reference value :  7.51808e-06
 Reference value :  7.51994e-06
 Reference value :  7.52334e-06
 Reference value :  7.52830e-06
 Reference value :  7.53822e-06
 Reference value :  7.55711e-06
 Reference value :  7.59358e-06
 Reference value :  7.66653e-06
 Reference value :  7.75010e-06
 Reference value :  7.75011e-06
 Reference value :  7.75013e-06
 Reference value :  7.75017e-06
 Reference value :  7.75020e-06
 Reference value :  7.75020e-06
 Reference value :  7.75020e-06
 Reference value :  7.75021e-06
 Reference value :  7.75021e-06
 Reference value :  7.75022e-06
 Reference value :  7.75025e-06
 Reference value :  7.75029e-06
 Reference value :  7.75039e-06
 Reference value :  7.75057e-06
 Reference value :  7.75091e-06
 Reference value :  7.75157e-06
 Reference value :  7.75217e-06
 Reference value :  7.75281e-06
 Reference value :  7.75352e-06
 Reference value :  7.75442e-06
 Reference value :  7.75512e-06
 Reference value :  7.75592e-06
 Reference value :  7.75663e-06
 Reference value :  7.75741e-06
 Reference value :  7.75844e-06
 Reference value :  7.75954e-06
 Reference value :  7.76058e-06
 Reference value :  7.76239e-06
 Reference value :  7.76402e-06
 Reference value :  7.76705e-06
 Reference value :  7.77018e-06
 Reference value :  7.77493e-06
 Reference value :  7.78288e-06
 Reference value :  7.79336e-06
 Reference value :  7.81111e-06
 Reference value :  7.84415e-06
 Reference value :  7.89691e-06
 Reference value :  7.99329e-06
 Reference value :  8.00000e-06
 Reference value :  8.00001e-06
 Reference value :  8.00003e-06
 Reference value :  8.00007e-06
 Reference value :  8.00010e-06
 Reference value :  8.00010e-06
 Reference value :  8.00011e-06
 Reference value :  8.00013e-06
 Reference value :  8.00016e-06
 Reference value :  8.00023e-06
 Reference value :  8.00037e-06
 Reference value :  8.00056e-06
 Reference value :  8.00092e-06
 Reference value :  8.00145e-06
 Reference value :  8.00199e-06
 Reference value :  8.00265e-06
 Reference value :  8.00340e-06
 Reference value :  8.00418e-06
 Reference value :  8.00503e-06
 Reference value :  8.00577e-06
 Reference value :  8.00653e-06
 Reference value :  8.00725e-06
 Reference value :  8.00806e-06
 Reference value :  8.00898e-06
 Reference value :  8.01003e-06
 Reference value :  8.01150e-06
 Reference value :  8.01348e-06
 Reference value :  8.01497e-06
 Reference value :  8.01660e-06
 Reference value :  8.01819e-06
 Reference value :  8.02000e-06
 Reference value :  8.02174e-06
 Reference value :  8.02383e-06
 Reference value :  8.02610e-06
 Reference value :  8.02826e-06
 Reference value :  8.03040e-06
 Reference value :  8.03371e-06
 Reference value :  8.03845e-06
 Reference value :  8.04755e-06
 Reference value :  8.06024e-06
 Reference value :  8.08417e-06
 Reference value :  8.12376e-06
 Reference value :  8.20293e-06
 Reference value :  8.25010e-06
 Reference value :  8.25011e-06
 Reference value :  8.25013e-06
 Reference value :  8.25017e-06
 Reference value :  8.25020e-06
 Reference value :  8.25020e-06
 Reference value :  8.25020e-06
 Reference value :  8.25021e-06
 Reference value :  8.25021e-06
 Reference value :  8.25022e-06
 Reference value :  8.25025e-06
 Reference value :  8.25029e-06
 Reference value :  8.25039e-06
 Reference value :  8.25058e-06
 Reference value :  8.25096e-06
 Reference value :  8.25160e-06
 Reference value :  8.25224e-06
 Reference value :  8.25290e-06
 Reference value :  8.25360e-06
 Reference value :  8.25448e-06
 Reference value :  8.25545e-06
 Reference value :  8.25667e-06
 Reference value :  8.25802e-06
 Reference value :  8.25946e-06
 Reference value :  8.26194e-06
 Reference value :  8.26451e-06
 Reference value :  8.26851e-06
 Reference value :  8.27329e-06
 Reference value :  8.28287e-06
 Reference value :  8.30202e-06
 Reference value :  8.34032e-06
 Reference value :  8.41692e-06
 Reference value :  8.50000e-06
 Reference value :  8.50000e-06
 Reference value :  8.50000e-06
 Reference value :  8.50000e-06
 Reference value :  8.50000e-06
 Reference value :  8.50000e-06
 Reference value :  8.50000e-06
 Reference value :  8.50000e-06
 Reference value :  8.50000e-06
 Reference value :  8.50001e-06
 Reference value :  8.50001e-06
 Reference value :  8.50002e-06
 Reference value :  8.50004e-06
 Reference value :  8.50008e-06
 Reference value :  8.50010e-06
 Reference value :  8.50010e-06
 Reference value :  8.50011e-06
 Reference value :  8.50012e-06
 Reference value :  8.50014e-06
 Reference value :  8.50018e-06
 Reference value :  8.50026e-06
 Reference value :  8.50042e-06
 Reference value :  8.50074e-06
 Reference value :  8.50127e-06
 Reference value :  8.50184e-06
 Reference value :  8.50268e-06
 Reference value :  8.50347e-06
 Reference value :  8.50424e-06
 Reference value :  8.50514e-06
 Reference value :  8.50596e-06
 Reference value :  8.50716e-06
 Reference value :  8.50871e-06
 Reference value :  8.51039e-06
 Reference value :  8.51199e-06
 Reference value :  8.51370e-06
 Reference value :  8.51558e-06
 Reference value :  8.51860e-06
 Reference value :  8.52180e-06
 Reference value :  8.52820e-06
 Reference value :  8.53462e-06
 Reference value :  8.53914e-06
 Reference value :  8.54275e-06
 Reference value :  8.54583e-06
 Reference value :  8.54887e-06
 Reference value :  8.55106e-06
 Reference value :  8.55337e-06
 Reference value :  8.55576e-06
 Reference value :  8.55808e-06
 Reference value :  8.56139e-06
 Reference value :  8.56515e-06
 Reference value :  8.56991e-06
 Reference value :  8.57375e-06
 Reference value :  8.57795e-06
 Reference value :  8.58190e-06
 Reference value :  8.58578e-06
 Reference value :  8.59071e-06
 Reference value :  8.60059e-06
 Reference value :  8.61633e-06
 Reference value :  8.63197e-06
 Reference value :  8.65184e-06
 Reference value :  8.67670e-06
 Reference value :  8.72579e-06
 Reference value :  8.75010e-06
 Reference value :  8.75011e-06
 Reference value :  8.75013e-06
 Reference value :  8.75017e-06
 Reference value :  8.75020e-06
 Reference value :  8.75020e-06
 Reference value :  8.75020e-06
 Reference value :  8.75021e-06
 Reference value :  8.75021e-06
 Reference value :  8.75022e-06
 Reference value :  8.75025e-06
 Reference value :  8.75029e-06
 Reference value :  8.75039e-06
 Reference value :  8.75057e-06
 Reference value :  8.75095e-06
 Reference value :  8.75162e-06
 Reference value :  8.75223e-06
 Reference value :  8.75289e-06
 Reference value :  8.75359e-06
 Reference value :  8.75448e-06
 Reference value :  8.75517e-06
 Reference value :  8.75596e-06
 Reference value :  8.75683e-06
 Reference value :  8.75771e-06
 Reference value :  8.75886e-06
 Reference value :  8.76089e-06
 Reference value :  8.76352e-06
 Reference value :  8.76655e-06
 Reference value :  8.77104e-06
 Reference value :  8.77798e-06
 Reference value :  8.79186e-06
 Reference value :  8.81875e-06
 Reference value :  8.87251e-06
 Reference value :  8.98004e-06
 Reference value :  9.00000e-06
 Reference value :  9.00001e-06
 Reference value :  9.00003e-06
 Reference value :  9.00007e-06
 Reference value :  9.00010e-06
 Reference value :  9.00010e-06
 Reference value :  9.00011e-06
 Reference value :  9.00013e-06
 Reference value :  9.00016e-06
 Reference value :  9.00023e-06
 Reference value :  9.00037e-06
 Reference value :  9.00057e-06
 Reference value :  9.00095e-06
 Reference value :  9.00154e-06
 Reference value :  9.00209e-06
 Reference value :  9.00275e-06
 Reference value :  9.00347e-06
 Reference value :  9.00426e-06
 Reference value :  9.00509e-06
 Reference value :  9.00590e-06
 Reference value :  9.00700e-06
 Reference value :  9.00803e-06
 Reference value :  9.00992e-06
 Reference value :  9.01228e-06
 Reference value :  9.01447e-06
 Reference value :  9.01686e-06
 Reference value :  9.01905e-06
 Reference value :  9.02165e-06
 Reference value :  9.02440e-06
 Reference value :  9.02915e-06
 Reference value :  9.03672e-06
 Reference value :  9.04844e-06
 Reference value :  9.07189e-06
 Reference value :  9.11106e-06
 Reference value :  9.18431e-06
 Reference value :  9.25010e-06
 Reference value :  9.25011e-06
 Reference value :  9.25013e-06
 Reference value :  9.25017e-06
 Reference value :  9.25020e-06
 Reference value :  9.25020e-06
 Reference value :  9.25020e-06
 Reference value :  9.25021e-06
 Reference value :  9.25021e-06
 Reference value :  9.25022e-06
 Reference value :  9.25025e-06
 Reference value :  9.25029e-06
 Reference value :  9.25039e-06
 Reference value :  9.25058e-06
 Reference value :  9.25096e-06
 Reference value :  9.25157e-06
 Reference value :  9.25219e-06
 Reference value :  9.25284e-06
 Reference value :  9.25354e-06
 Reference value :  9.25445e-06
 Reference value :  9.25518e-06
 Reference value :  9.25600e-06
 Reference value :  9.25673e-06
 Reference value :  9.25753e-06
 Reference value :  9.25856e-06
 Reference value :  9.25965e-06
 Reference value :  9.26068e-06
 Reference value :  9.26212e-06
 Reference value :  9.26363e-06
 Reference value :  9.26619e-06
 Reference value :  9.26913e-06
 Reference value :  9.27335e-06
 Reference value :  9.27990e-06
 Reference value :  9.28882e-06
 Reference value :  9.30274e-06
 Reference value :  9.32291e-06
 Reference value :  9.35457e-06
 Reference value :  9.41309e-06
 Reference value :  9.50000e-06
 Reference value :  9.50001e-06
 Reference value :  9.50003e-06
 Reference value :  9.50007e-06
 Reference value :  9.50010e-06
 Reference value :  9.50010e-06
 Reference value :  9.50011e-06
 Reference value :  9.50013e-06
 Reference value :  9.50016e-06
 Reference value :  9.50023e-06
 Reference value :  9.50037e-06
 Reference value :  9.50057e-06
 Reference value :  9.50095e-06
 Reference value :  9.50154e-06
 Reference value :  9.50209e-06
 Reference value :  9.50276e-06
 Reference value :  9.50352e-06
 Reference value :  9.50439e-06
 Reference value :  9.50526e-06
 Reference value :  9.50610e-06
 Reference value :  9.50687e-06
 Reference value :  9.50761e-06
 Reference value :  9.50845e-06
 Reference value :  9.50939e-06
 Reference value :  9.51054e-06
 Reference value :  9.51242e-06
 Reference value :  9.51475e-06
 Reference value :  9.51645e-06
 Reference value :  9.51833e-06
 Reference value :  9.52033e-06
 Reference value :  9.52203e-06
 Reference value :  9.52334e-06
 Reference value :  9.52456e-06
 Reference value :  9.52575e-06
 Reference value :  9.52704e-06
 Reference value :  9.52858e-06
 Reference value :  9.53051e-06
 Reference value :  9.53319e-06
 Reference value :  9.53650e-06
 Reference value :  9.54312e-06
 Reference value :  9.55367e-06
 Reference value :  9.57137e-06
 Reference value :  9.60308e-06
 Reference value :  9.65518e-06
 Reference value :  9.72946e-06
 Reference value :  9.75010e-06
 Reference value :  9.75011e-06
 Reference value :  9.75013e-06
 Reference value :  9.75017e-06
 Reference value :  9.75020e-06
 Reference value :  9.75020e-06
 Reference value :  9.75020e-06
 Reference value :  9.75021e-06
 Reference value :  9.75021e-06
 Reference value :  9.75022e-06
 Reference value :  9.75025e-06
 Reference value :  9.75029e-06
 Reference value :  9.75039e-06
 Reference value :  9.75058e-06
 Reference value :  9.75091e-06
 Reference value :  9.75156e-06
 Reference value :  9.75216e-06
 Reference value :  9.75279e-06
 Reference value :  9.75350e-06
 Reference value :  9.75439e-06
 Reference value :  9.75513e-06
 Reference value :  9.75596e-06
 Reference value :  9.75682e-06
 Reference value :  9.75771e-06
 Reference value :  9.75890e-06
 Reference value :  9.76073e-06
 Reference value :  9.76320e-06
 Reference value :  9.76623e-06
 Reference value :  9.77056e-06
 Reference value :  9.77712e-06
 Reference value :  9.79025e-06
 Reference value :  9.81650e-06
 Reference value :  9.86899e-06
 Reference value :  9.97399e-06
 Reference value :  1.00000e-05
 Reference value :  1.00000e-05
 Reference value :  1.00000e-05
 Reference value :  1.00001e-05
 Reference value :  1.00001e-05
 Reference value :  1.00001e-05
 Reference value :  1.00001e-05
 Reference value :  1.00001e-05
 Reference value :  1.00002e-05
 Reference value :  1.00002e-05
 Reference value :  1.00004e-05
 Reference value :  1.00006e-05
 Reference value :  1.00009e-05
 Reference value :  1.00014e-05
 Reference value :  1.00020e-05
 Reference value :  1.00026e-05
 Reference value :  1.00033e-05
 Reference value :  1.00040e-05
 Reference value :  1.00050e-05
 Reference value :  1.00059e-05
 Reference value :  1.00068e-05
 Reference value :  1.00081e-05
 Reference value :  1.00094e-05
 Reference value :  1.00107e-05
 Reference value :  1.00120e-05
 Reference value :  1.00137e-05
 Reference value :  1.00151e-05
 Reference value :  1.00167e-05
 Reference value :  1.00182e-05
 Reference value :  1.00200e-05
 Reference value :  1.00236e-05
 Reference value :  1.00293e-05
 Reference value :  1.00397e-05
 Reference value :  1.00601e-05
 Reference value :  1.01009e-05
 Reference value :  1.01824e-05
 Reference value :  1.02501e-05
 Reference value :  1.02501e-05
 Reference value :  1.02501e-05
 Reference value :  1.02502e-05
 Reference value :  1.02502e-05
 Reference value :  1.02502e-05
 Reference value :  1.02502e-05
 Reference value :  1.02502e-05
 Reference value :  1.02502e-05
 Reference value :  1.02502e-05
 Reference value :  1.02502e-05
 Reference value :  1.02503e-05
 Reference value :  1.02504e-05
 Reference value :  1.02506e-05
 Reference value :  1.02509e-05
 Reference value :  1.02516e-05
 Reference value :  1.02521e-05
 Reference value :  1.02528e-05
 Reference value :  1.02535e-05
 Reference value :  1.02544e-05
 Reference value :  1.02551e-05
 Reference value :  1.02560e-05
 Reference value :  1.02567e-05
 Reference value :  1.02575e-05
 Reference value :  1.02586e-05
 Reference value :  1.02597e-05
 Reference value :  1.02608e-05
 Reference value :  1.02625e-05
 Reference value :  1.02646e-05
 Reference value :  1.02672e-05
 Reference value :  1.02708e-05
 Reference value :  1.02753e-05
 Reference value :  1.02844e-05
 Reference value :  1.02985e-05
 Reference value :  1.03267e-05
 Reference value :  1.03831e-05
 Reference value :  1.04959e-05
 Reference value :  1.05000e-05
 Reference value :  1.05000e-05
 Reference value :  1.05000e-05
 Reference value :  1.05001e-05
 Reference value :  1.05001e-05
 Reference value :  1.05001e-05
 Reference value :  1.05001e-05
 Reference value :  1.05001e-05
 Reference value :  1.05002e-05
 Reference value :  1.05002e-05
 Reference value :  1.05004e-05
 Reference value :  1.05006e-05
 Reference value :  1.05009e-05
 Reference value :  1.05014e-05
 Reference value :  1.05020e-05
 Reference value :  1.05026e-05
 Reference value :  1.05034e-05
 Reference value :  1.05041e-05
 Reference value :  1.05050e-05
 Reference value :  1.05057e-05
 Reference value :  1.05065e-05
 Reference value :  1.05072e-05
 Reference value :  1.05080e-05
 Reference value :  1.05088e-05
 Reference value :  1.05099e-05
 Reference value :  1.05111e-05
 Reference value :  1.05131e-05
 Reference value :  1.05160e-05
 Reference value :  1.05179e-05
 Reference value :  1.05200e-05
 Reference value :  1.05220e-05
 Reference value :  1.05234e-05
 Reference value :  1.05248e-05
 Reference value :  1.05260e-05
 Reference value :  1.05274e-05
 Reference value :  1.05290e-05
 Reference value :  1.05310e-05
 Reference value :  1.05338e-05
 Reference value :  1.05372e-05
 Reference value :  1.05440e-05
 Reference value :  1.05544e-05
 Reference value :  1.05690e-05
 Reference value :  1.05939e-05
 Reference value :  1.06282e-05
 Reference value :  1.06661e-05
 Reference value :  1.07115e-05
 Reference value :  1.07501e-05
 Reference value :  1.07501e-05
 Reference value :  1.07501e-05
 Reference value :  1.07502e-05
 Reference value :  1.07502e-05
 Reference value :  1.07502e-05
 Reference value :  1.07502e-05
 Reference value :  1.07502e-05
 Reference value :  1.07502e-05
 Reference value :  1.07502e-05
 Reference value :  1.07502e-05
 Reference value :  1.07503e-05
 Reference value :  1.07504e-05
 Reference value :  1.07506e-05
 Reference value :  1.07509e-05
 Reference value :  1.07515e-05
 Reference value :  1.07521e-05
 Reference value :  1.07528e-05
 Reference value :  1.07535e-05
 Reference value :  1.07544e-05
 Reference value :  1.07551e-05
 Reference value :  1.07560e-05
 Reference value :  1.07568e-05
 Reference value :  1.07577e-05
 Reference value :  1.07589e-05
 Reference value :  1.07608e-05
 Reference value :  1.07632e-05
 Reference value :  1.07663e-05
 Reference value :  1.07706e-05
 Reference value :  1.07774e-05
 Reference value :  1.07909e-05
 Reference value :  1.08177e-05
 Reference value :  1.08712e-05
 Reference value :  1.09240e-05
 Reference value :  1.09870e-05
 Reference value :  1.10000e-05
 Reference value :  1.10000e-05
 Reference value :  1.10000e-05
 Reference value :  1.10001e-05
 Reference value :  1.10001e-05
 Reference value :  1.10001e-05
 Reference value :  1.10001e-05
 Reference value :  1.10001e-05
 Reference value :  1.10002e-05
 Reference value :  1.10002e-05
 Reference value :  1.10004e-05
 Reference value :  1.10006e-05
 Reference value :  1.10009e-05
 Reference value :  1.10014e-05
 Reference value :  1.10020e-05
 Reference value :  1.10026e-05
 Reference value :  1.10033e-05
 Reference value :  1.10041e-05
 Reference value :  1.10050e-05
 Reference value :  1.10059e-05
 Reference value :  1.10069e-05
 Reference value :  1.10081e-05
 Reference value :  1.10093e-05
 Reference value :  1.10106e-05
 Reference value :  1.10120e-05
 Reference value :  1.10136e-05
 Reference value :  1.10149e-05
 Reference value :  1.10165e-05
 Reference value :  1.10180e-05
 Reference value :  1.10198e-05
 Reference value :  1.10233e-05
 Reference value :  1.10292e-05
 Reference value :  1.10397e-05
 Reference value :  1.10606e-05
 Reference value :  1.11024e-05
 Reference value :  1.11860e-05
 Reference value :  1.12501e-05
 Reference value :  1.12501e-05
 Reference value :  1.12501e-05
 Reference value :  1.12502e-05
 Reference value :  1.12502e-05
 Reference value :  1.12502e-05
 Reference value :  1.12502e-05
 Reference value :  1.12502e-05
 Reference value :  1.12502e-05
 Reference value :  1.12502e-05
 Reference value :  1.12502e-05
 Reference value :  1.12503e-05
 Reference value :  1.12504e-05
 Reference value :  1.12506e-05
 Reference value :  1.12509e-05
 Reference value :  1.12516e-05
 Reference value :  1.12522e-05
 Reference value :  1.12528e-05
 Reference value :  1.12535e-05
 Reference value :  1.12544e-05
 Reference value :  1.12551e-05
 Reference value :  1.12560e-05
 Reference value :  1.12567e-05
 Reference value :  1.12575e-05
 Reference value :  1.12585e-05
 Reference value :  1.12596e-05
 Reference value :  1.12608e-05
 Reference value :  1.12625e-05
 Reference value :  1.12645e-05
 Reference value :  1.12672e-05
 Reference value :  1.12707e-05
 Reference value :  1.12753e-05
 Reference value :  1.12844e-05
 Reference value :  1.12977e-05
 Reference value :  1.13242e-05
 Reference value :  1.13772e-05
 Reference value :  1.14832e-05
 Reference value :  1.15000e-05
 Reference value :  1.15000e-05
 Reference value :  1.15000e-05
 Reference value :  1.15001e-05
 Reference value :  1.15001e-05
 Reference value :  1.15001e-05
 Reference value :  1.15001e-05
 Reference value :  1.15001e-05
 Reference value :  1.15002e-05
 Reference value :  1.15002e-05
 Reference value :  1.15004e-05
 Reference value :  1.15006e-05
 Reference value :  1.15009e-05
 Reference value :  1.15014e-05
 Reference value :  1.15020e-05
 Reference value :  1.15026e-05
 Reference value :  1.15034e-05
 Reference value :  1.15041e-05
 Reference value :  1.15050e-05
 Reference value :  1.15057e-05
 Reference value :  1.15065e-05
 Reference value :  1.15072e-05
 Reference value :  1.15081e-05
 Reference value :  1.15089e-05
 Reference value :  1.15099e-05
 Reference value :  1.15111e-05
 Reference value :  1.15130e-05
 Reference value :  1.15149e-05
 Reference value :  1.15166e-05
 Reference value :  1.15183e-05
 Reference value :  1.15202e-05
 Reference value :  1.15217e-05
 Reference value :  1.15232e-05
 Reference value :  1.15251e-05
 Reference value :  1.15268e-05
 Reference value :  1.15283e-05
 Reference value :  1.15304e-05
 Reference value :  1.15331e-05
 Reference value :  1.15359e-05
 Reference value :  1.15407e-05
 Reference value :  1.15472e-05
 Reference value :  1.15574e-05
 Reference value :  1.15737e-05
 Reference value :  1.15992e-05
 Reference value :  1.16244e-05
 Reference value :  1.16527e-05
 Reference value :  1.16864e-05
 Reference value :  1.17221e-05
 Reference value :  1.17501e-05
 Reference value :  1.17501e-05
 Reference value :  1.17501e-05
 Reference value :  1.17502e-05
 Reference value :  1.17502e-05
 Reference value :  1.17502e-05
 Reference value :  1.17502e-05
 Reference value :  1.17502e-05
 Reference value :  1.17502e-05
 Reference value :  1.17502e-05
 Reference value :  1.17502e-05
 Reference value :  1.17503e-05
 Reference value :  1.17504e-05
 Reference value :  1.17506e-05
 Reference value :  1.17509e-05
 Reference value :  1.17516e-05
 Reference value :  1.17521e-05
 Reference value :  1.17528e-05
 Reference value :  1.17535e-05
 Reference value :  1.17544e-05
 Reference value :  1.17551e-05
 Reference value :  1.17560e-05
 Reference value :  1.17568e-05
 Reference value :  1.17577e-05
 Reference value :  1.17589e-05
 Reference value :  1.17608e-05
 Reference value :  1.17632e-05
 Reference value :  1.17663e-05
 Reference value :  1.17706e-05
 Reference value :  1.17772e-05
 Reference value :  1.17905e-05
 Reference value :  1.18170e-05
 Reference value :  1.18700e-05
 Reference value :  1.19761e-05
 Reference value :  1.20000e-05
 Reference value :  1.20000e-05
 Reference value :  1.20000e-05
 Reference value :  1.20001e-05
 Reference value :  1.20001e-05
 Reference value :  1.20001e-05
 Reference value :  1.20001e-05
 Reference value :  1.20001e-05
 Reference value :  1.20002e-05
 Reference value :  1.20002e-05
 Reference value :  1.20004e-05
 Reference value :  1.20006e-05
 Reference value :  1.20009e-05
 Reference value :  1.20014e-05
 Reference value :  1.20020e-05
 Reference value :  1.20026e-05
 Reference value :  1.20033e-05
 Reference value :  1.20040e-05
 Reference value :  1.20050e-05
 Reference value :  1.20058e-05
 Reference value :  1.20068e-05
 Reference value :  1.20080e-05
 Reference value :  1.20093e-05
 Reference value :  1.20105e-05
 Reference value :  1.20118e-05
 Reference value :  1.20135e-05
 Reference value :  1.20149e-05
 Reference value :  1.20165e-05
 Reference value :  1.20181e-05
 Reference value :  1.20199e-05
 Reference value :  1.20234e-05
 Reference value :  1.20285e-05
 Reference value :  1.20386e-05
 Reference value :  1.20589e-05
 Reference value :  1.20995e-05
 Reference value :  1.21807e-05
 Reference value :  1.22501e-05
 Reference value :  1.22501e-05
 Reference value :  1.22501e-05
 Reference value :  1.22502e-05
 Reference value :  1.22502e-05
 Reference value :  1.22502e-05
 Reference value :  1.22502e-05
 Reference value :  1.22502e-05
 Reference value :  1.22502e-05
 Reference value :  1.22502e-05
 Reference value :  1.22502e-05
 Reference value :  1.22503e-05
 Reference value :  1.22504e-05
 Reference value :  1.22506e-05
 Reference value :  1.22509e-05
 Reference value :  1.22516e-05
 Reference value :  1.22522e-05
 Reference value :  1.22528e-05
 Reference value :  1.22535e-05
 Reference value :  1.22544e-05
 Reference value :  1.22551e-05
 Reference value :  1.22560e-05
 Reference value :  1.22567e-05
 Reference value :  1.22575e-05
 Reference value :  1.22585e-05
 Reference value :  1.22596e-05
 Reference value :  1.22607e-05
 Reference value :  1.22625e-05
 Reference value :  1.22642e-05
 Reference value :  1.22671e-05
 Reference value :  1.22704e-05
 Reference value :  1.22750e-05
 Reference value :  1.22836e-05
 Reference value :  1.22948e-05
 Reference value :  1.23156e-05
 Reference value :  1.23553e-05
 Reference value :  1.24203e-05
 Reference value :  1.25000e-05
 Reference value :  1.25000e-05
 Reference value :  1.25000e-05
 Reference value :  1.25001e-05
 Reference value :  1.25001e-05
 Reference value :  1.25001e-05
 Reference value :  1.25001e-05
 Reference value :  1.25001e-05
 Reference value :  1.25002e-05
 Reference value :  1.25002e-05
 Reference value :  1.25004e-05
 Reference value :  1.25006e-05
 Reference value :  1.25009e-05
 Reference value :  1.25014e-05
 Reference value :  1.25020e-05
 Reference value :  1.25026e-05
 Reference value :  1.25034e-05
 Reference value :  1.25041e-05
 Reference value :  1.25050e-05
 Reference value :  1.25057e-05
 Reference value :  1.25065e-05
 Reference value :  1.25072e-05
 Reference value :  1.25080e-05
 Reference value :  1.25089e-05
 Reference value :  1.25099e-05
 Reference value :  1.25112e-05
 Reference value :  1.25132e-05
 Reference value :  1.25146e-05
 Reference value :  1.25161e-05
 Reference value :  1.25177e-05
 Reference value :  1.25194e-05
 Reference value :  1.25210e-05
 Reference value :  1.25224e-05
 Reference value :  1.25238e-05
 Reference value :  1.25251e-05
 Reference value :  1.25266e-05
 Reference value :  1.25281e-05
 Reference value :  1.25297e-05
 Reference value :  1.25323e-05
 Reference value :  1.25353e-05
 Reference value :  1.25413e-05
 Reference value :  1.25516e-05
 Reference value :  1.25681e-05
 Reference value :  1.25878e-05
 Reference value :  1.26058e-05
 Reference value :  1.26216e-05
 Reference value :  1.26357e-05
 Reference value :  1.26447e-05
 Reference value :  1.26529e-05
 Reference value :  1.26616e-05
 Reference value :  1.26778e-05
 Reference value :  1.26970e-05
 Reference value :  1.27274e-05
 Reference value :  1.27501e-05
 Reference value :  1.27501e-05
 Reference value :  1.27501e-05
 Reference value :  1.27502e-05
 Reference value :  1.27502e-05
 Reference value :  1.27502e-05
 Reference value :  1.27502e-05
 Reference value :  1.27502e-05
 Reference value :  1.27502e-05
 Reference value :  1.27502e-05
 Reference value :  1.27502e-05
 Reference value :  1.27503e-05
 Reference value :  1.27504e-05
 Reference value :  1.27506e-05
 Reference value :  1.27509e-05
 Reference value :  1.27516e-05
 Reference value :  1.27522e-05
 Reference value :  1.27528e-05
 Reference value :  1.27535e-05
 Reference value :  1.27544e-05
 Reference value :  1.27552e-05
 Reference value :  1.27560e-05
 Reference value :  1.27568e-05
 Reference value :  1.27577e-05
 Reference value :  1.27589e-05
 Reference value :  1.27607e-05
 Reference value :  1.27632e-05
 Reference value :  1.27663e-05
 Reference value :  1.27706e-05
 Reference value :  1.27770e-05
 Reference value :  1.27899e-05
 Reference value :  1.28157e-05
 Reference value :  1.28672e-05
 Reference value :  1.29703e-05
 Reference value :  1.30000e-05
 Reference value :  1.30000e-05
 Reference value :  1.30000e-05
 Reference value :  1.30001e-05
 Reference value :  1.30001e-05
 Reference value :  1.30001e-05
 Reference value :  1.30001e-05
 Reference value :  1.30001e-05
 Reference value :  1.30002e-05
 Reference value :  1.30002e-05
 Reference value :  1.30004e-05
 Reference value :  1.30006e-05
 Reference value :  1.30009e-05
 Reference value :  1.30014e-05
 Reference value :  1.30020e-05
 Reference value :  1.30026e-05
 Reference value :  1.30034e-05
 Reference value :  1.30041e-05
 Reference value :  1.30049e-05
 Reference value :  1.30058e-05
 Reference value :  1.30068e-05
 Reference value :  1.30079e-05
 Reference value :  1.30090e-05
 Reference value :  1.30102e-05
 Reference value :  1.30114e-05
 Reference value :  1.30131e-05
 Reference value :  1.30145e-05
 Reference value :  1.30160e-05
 Reference value :  1.30175e-05
 Reference value :  1.30193e-05
 Reference value :  1.30228e-05
 Reference value :  1.30278e-05
 Reference value :  1.30377e-05
 Reference value :  1.30577e-05
 Reference value :  1.30977e-05
 Reference value :  1.31777e-05
 Reference value :  1.32501e-05
 Reference value :  1.32501e-05
 Reference value :  1.32501e-05
 Reference value :  1.32502e-05
 Reference value :  1.32502e-05
 Reference value :  1.32502e-05
 Reference value :  1.32502e-05
 Reference value :  1.32502e-05
 Reference value :  1.32502e-05
 Reference value :  1.32502e-05
 Reference value :  1.32502e-05
 Reference value :  1.32503e-05
 Reference value :  1.32504e-05
 Reference value :  1.32506e-05
 Reference value :  1.32509e-05
 Reference value :  1.32515e-05
 Reference value :  1.32521e-05
 Reference value :  1.32528e-05
 Reference value :  1.32535e-05
 Reference value :  1.32544e-05
 Reference value :  1.32551e-05
 Reference value :  1.32560e-05
 Reference value :  1.32567e-05
 Reference value :  1.32575e-05
 Reference value :  1.32585e-05
 Reference value :  1.32597e-05
 Reference value :  1.32619e-05
 Reference value :  1.32642e-05
 Reference value :  1.32683e-05
 Reference value :  1.32726e-05
 Reference value :  1.32814e-05
 Reference value :  1.32989e-05
 Reference value :  1.33339e-05
 Reference value :  1.34039e-05
 Reference value :  1.35000e-05
 Reference value :  1.35000e-05
 Reference value :  1.35000e-05
 Reference value :  1.35001e-05
 Reference value :  1.35001e-05
 Reference value :  1.35001e-05
 Reference value :  1.35001e-05
 Reference value :  1.35001e-05
 Reference value :  1.35002e-05
 Reference value :  1.35002e-05
 Reference value :  1.35004e-05
 Reference value :  1.35006e-05
 Reference value :  1.35009e-05
 Reference value :  1.35014e-05
 Reference value :  1.35020e-05
 Reference value :  1.35026e-05
 Reference value :  1.35034e-05
 Reference value :  1.35041e-05
 Reference value :  1.35050e-05
 Reference value :  1.35057e-05
 Reference value :  1.35065e-05
 Reference value :  1.35073e-05
 Reference value :  1.35083e-05
 Reference value :  1.35092e-05
 Reference value :  1.35105e-05
 Reference value :  1.35121e-05
 Reference value :  1.35144e-05
 Reference value :  1.35178e-05
 Reference value :  1.35202e-05
 Reference value :  1.35223e-05
 Reference value :  1.35242e-05
 Reference value :  1.35262e-05
 Reference value :  1.35281e-05
 Reference value :  1.35303e-05
 Reference value :  1.35325e-05
 Reference value :  1.35354e-05
 Reference value :  1.35389e-05
 Reference value :  1.35440e-05
 Reference value :  1.35513e-05
 Reference value :  1.35623e-05
 Reference value :  1.35761e-05
 Reference value :  1.35914e-05
 Reference value :  1.36157e-05
 Reference value :  1.36420e-05
 Reference value :  1.36707e-05
 Reference value :  1.37031e-05
 Reference value :  1.37242e-05
 Reference value :  1.37442e-05
 Reference value :  1.37501e-05
 Reference value :  1.37501e-05
 Reference value :  1.37501e-05
 Reference value :  1.37502e-05
 Reference value :  1.37502e-05
 Reference value :  1.37502e-05
 Reference value :  1.37502e-05
 Reference value :  1.37502e-05
 Reference value :  1.37502e-05
 Reference value :  1.37502e-05
 Reference value :  1.37502e-05
 Reference value :  1.37503e-05
 Reference value :  1.37504e-05
 Reference value :  1.37506e-05
 Reference value :  1.37509e-05
 Reference value :  1.37516e-05
 Reference value :  1.37522e-05
 Reference value :  1.37528e-05
 Reference value :  1.37535e-05
 Reference value :  1.37544e-05
 Reference value :  1.37551e-05
 Reference value :  1.37559e-05
 Reference value :  1.37568e-05
 Reference value :  1.37577e-05
 Reference value :  1.37589e-05
 Reference value :  1.37609e-05
 Reference value :  1.37633e-05
 Reference value :  1.37664e-05
 Reference value :  1.37707e-05
 Reference value :  1.37776e-05
 Reference value :  1.37915e-05
 Reference value :  1.38189e-05
 Reference value :  1.38738e-05
 Reference value :  1.39470e-05
 Reference value :  1.40000e-05
 Reference value :  1.40000e-05
 Reference value :  1.40000e-05
 Reference value :  1.40001e-05
 Reference value :  1.40001e-05
 Reference value :  1.40001e-05
 Reference value :  1.40001e-05
 Reference value :  1.40001e-05
 Reference value :  1.40002e-05
 Reference value :  1.40002e-05
 Reference value :  1.40004e-05
 Reference value :  1.40006e-05
 Reference value :  1.40009e-05
 Reference value :  1.40014e-05
 Reference value :  1.40020e-05
 Reference value :  1.40026e-05
 Reference value :  1.40033e-05
 Reference value :  1.40040e-05
 Reference value :  1.40049e-05
 Reference value :  1.40059e-05
 Reference value :  1.40069e-05
 Reference value :  1.40081e-05
 Reference value :  1.40093e-05
 Reference value :  1.40107e-05
 Reference value :  1.40120e-05
 Reference value :  1.40136e-05
 Reference value :  1.40153e-05
 Reference value :  1.40171e-05
 Reference value :  1.40192e-05
 Reference value :  1.40226e-05
 Reference value :  1.40277e-05
 Reference value :  1.40370e-05
 Reference value :  1.40538e-05
 Reference value :  1.40841e-05
 Reference value :  1.41429e-05
 Reference value :  1.42501e-05
 Reference value :  1.42501e-05
 Reference value :  1.42501e-05
 Reference value :  1.42502e-05
 Reference value :  1.42502e-05
 Reference value :  1.42502e-05
 Reference value :  1.42502e-05
 Reference value :  1.42502e-05
 Reference value :  1.42502e-05
 Reference value :  1.42502e-05
 Reference value :  1.42502e-05
 Reference value :  1.42503e-05
 Reference value :  1.42504e-05
 Reference value :  1.42506e-05
 Reference value :  1.42509e-05
 Reference value :  1.42516e-05
 Reference value :  1.42522e-05
 Reference value :  1.42528e-05
 Reference value :  1.42535e-05
 Reference value :  1.42544e-05
 Reference value :  1.42551e-05
 Reference value :  1.42560e-05
 Reference value :  1.42567e-05
 Reference value :  1.42575e-05
 Reference value :  1.42585e-05
 Reference value :  1.42596e-05
 Reference value :  1.42607e-05
 Reference value :  1.42624e-05
 Reference value :  1.42642e-05
 Reference value :  1.42671e-05
 Reference value :  1.42704e-05
 Reference value :  1.42750e-05
 Reference value :  1.42841e-05
 Reference value :  1.42960e-05
 Reference value :  1.43193e-05
 Reference value :  1.43639e-05
 Reference value :  1.44502e-05
 Reference value :  1.45000e-05
 Reference value :  1.45000e-05
 Reference value :  1.45000e-05
 Reference value :  1.45001e-05
 Reference value :  1.45001e-05
 Reference value :  1.45001e-05
 Reference value :  1.45001e-05
 Reference value :  1.45001e-05
 Reference value :  1.45002e-05
 Reference value :  1.45002e-05
 Reference value :  1.45004e-05
 Reference value :  1.45006e-05
 Reference value :  1.45009e-05
 Reference value :  1.45014e-05
 Reference value :  1.45020e-05
 Reference value :  1.45026e-05
 Reference value :  1.45034e-05
 Reference value :  1.45041e-05
 Reference value :  1.45050e-05
 Reference value :  1.45057e-05
 Reference value :  1.45065e-05
 Reference value :  1.45072e-05
 Reference value :  1.45081e-05
 Reference value :  1.45090e-05
 Reference value :  1.45100e-05
 Reference value :  1.45116e-05
 Reference value :  1.45135e-05
 Reference value :  1.45149e-05
 Reference value :  1.45164e-05
 Reference value :  1.45181e-05
 Reference value :  1.45200e-05
 Reference value :  1.45218e-05
 Reference value :  1.45233e-05
 Reference value :  1.45249e-05
 Reference value :  1.45262e-05
 Reference value :  1.45277e-05
 Reference value :  1.45295e-05
 Reference value :  1.45316e-05
 Reference value :  1.45342e-05
 Reference value :  1.45379e-05
 Reference value :  1.45443e-05
 Reference value :  1.45493e-05
 Reference value :  1.45552e-05
 Reference value :  1.45615e-05
 Reference value :  1.45710e-05
 Reference value :  1.45837e-05
 Reference value :  1.46063e-05
 Reference value :  1.46441e-05
 Reference value :  1.47091e-05
 Reference value :  1.47501e-05
 Reference value :  1.47501e-05
 Reference value :  1.47501e-05
 Reference value :  1.47502e-05
 Reference value :  1.47502e-05
 Reference value :  1.47502e-05
 Reference value :  1.47502e-05
 Reference value :  1.47502e-05
 Reference value :  1.47502e-05
 Reference value :  1.47502e-05
 Reference value :  1.47502e-05
 Reference value :  1.47503e-05
 Reference value :  1.47504e-05
 Reference value :  1.47506e-05
 Reference value :  1.47509e-05
 Reference value :  1.47516e-05
 Reference value :  1.47522e-05
 Reference value :  1.47528e-05
 Reference value :  1.47535e-05
 Reference value :  1.47544e-05
 Reference value :  1.47551e-05
 Reference value :  1.47559e-05
 Reference value :  1.47568e-05
 Reference value :  1.47577e-05
 Reference value :  1.47588e-05
 Reference value :  1.47607e-05
 Reference value :  1.47632e-05
 Reference value :  1.47661e-05
 Reference value :  1.47705e-05
 Reference value :  1.47768e-05
 Reference value :  1.47894e-05
 Reference value :  1.48147e-05
 Reference value :  1.48652e-05
 Reference value :  1.49126e-05
 Reference value :  1.49467e-05
 Reference value :  1.49791e-05
 Reference value :  1.50000e-05
 Reference value :  1.50000e-05
 Reference value :  1.50000e-05
 Reference value :  1.50001e-05
 Reference value :  1.50001e-05
 Reference value :  1.50001e-05
 Reference value :  1.50001e-05
 Reference value :  1.50001e-05
 Reference value :  1.50002e-05
 Reference value :  1.50002e-05
 Reference value :  1.50004e-05
 Reference value :  1.50006e-05
 Reference value :  1.50009e-05
 Reference value :  1.50014e-05
 Reference value :  1.50020e-05
 Reference value :  1.50026e-05
 Reference value :  1.50034e-05
 Reference value :  1.50041e-05
 Reference value :  1.50049e-05
 Reference value :  1.50058e-05
 Reference value :  1.50067e-05
 Reference value :  1.50078e-05
 Reference value :  1.50092e-05
 Reference value :  1.50104e-05
 Reference value :  1.50117e-05
 Reference value :  1.50134e-05
 Reference value :  1.50149e-05
 Reference value :  1.50165e-05
 Reference value :  1.50183e-05
 Reference value :  1.50204e-05
 Reference value :  1.50239e-05
 Reference value :  1.50291e-05
 Reference value :  1.50386e-05
 Reference value :  1.50562e-05
 Reference value :  1.50883e-05
 Reference value :  1.51515e-05
 Reference value :  1.52501e-05
 Reference value :  1.52501e-05
 Reference value :  1.52501e-05
 Reference value :  1.52502e-05
 Reference value :  1.52502e-05
 Reference value :  1.52502e-05
 Reference value :  1.52502e-05
 Reference value :  1.52502e-05
 Reference value :  1.52502e-05
 Reference value :  1.52502e-05
 Reference value :  1.52502e-05
 Reference value :  1.52503e-05
 Reference value :  1.52504e-05
 Reference value :  1.52506e-05
 Reference value :  1.52509e-05
 Reference value :  1.52516e-05
 Reference value :  1.52522e-05
 Reference value :  1.52528e-05
 Reference value :  1.52535e-05
 Reference value :  1.52544e-05
 Reference value :  1.52551e-05
 Reference value :  1.52560e-05
 Reference value :  1.52567e-05
 Reference value :  1.52575e-05
 Reference value :  1.52585e-05
 Reference value :  1.52596e-05
 Reference value :  1.52618e-05
 Reference value :  1.52641e-05
 Reference value :  1.52682e-05
 Reference value :  1.52725e-05
 Reference value :  1.52812e-05
 Reference value :  1.52986e-05
 Reference value :  1.53333e-05
 Reference value :  1.54027e-05
 Reference value :  1.55000e-05
 Reference value :  1.55014e-05
 Reference value :  1.55042e-05
 Reference value :  1.55056e-05
 Reference value :  1.55070e-05
 Reference value :  1.55083e-05
 Reference value :  1.55096e-05
 Reference value :  1.55109e-05
 Reference value :  1.55124e-05
 Reference value :  1.55143e-05
 Reference value :  1.55169e-05
 Reference value :  1.55194e-05
 Reference value :  1.55221e-05
 Reference value :  1.55240e-05
 Reference value :  1.55258e-05
 Reference value :  1.55274e-05
 Reference value :  1.55291e-05
 Reference value :  1.55310e-05
 Reference value :  1.55337e-05
 Reference value :  1.55365e-05
 Reference value :  1.55415e-05
 Reference value :  1.55483e-05
 Reference value :  1.55589e-05
 Reference value :  1.55735e-05
 Reference value :  1.55944e-05
 Reference value :  1.56243e-05
 Reference value :  1.56549e-05
 Reference value :  1.56762e-05
 Reference value :  1.56962e-05
 Reference value :  1.57274e-05
 Reference value :  1.57501e-05
 Reference value :  1.57501e-05
 Reference value :  1.57501e-05
 Reference value :  1.57502e-05
 Reference value :  1.57502e-05
 Reference value :  1.57502e-05
 Reference value :  1.57502e-05
 Reference value :  1.57502e-05
 Reference value :  1.57502e-05
 Reference value :  1.57502e-05
 Reference value :  1.57502e-05
 Reference value :  1.57503e-05
 Reference value :  1.57504e-05
 Reference value :  1.57506e-05
 Reference value :  1.57509e-05
 Reference value :  1.57516e-05
 Reference value :  1.57522e-05
 Reference value :  1.57528e-05
 Reference value :  1.57535e-05
 Reference value :  1.57544e-05
 Reference value :  1.57551e-05
 Reference value :  1.57559e-05
 Reference value :  1.57567e-05
 Reference value :  1.57576e-05
 Reference value :  1.57588e-05
 Reference value :  1.57607e-05
 Reference value :  1.57633e-05
 Reference value :  1.57662e-05
[...]
 Reference value :  1.74250e-04
 Reference value :  1.74250e-04
 Reference value :  1.74250e-04
 Reference value :  1.74250e-04
 Reference value :  1.74250e-04
 Reference value :  1.74250e-04
 Reference value :  1.74250e-04
 Reference value :  1.74250e-04
 Reference value :  1.74250e-04
 Reference value :  1.74250e-04
 Reference value :  1.74250e-04
 Reference value :  1.74250e-04
 Reference value :  1.74250e-04
 Reference value :  1.74251e-04
 Reference value :  1.74251e-04
 Reference value :  1.74252e-04
 Reference value :  1.74252e-04
 Reference value :  1.74253e-04
 Reference value :  1.74253e-04
 Reference value :  1.74254e-04
 Reference value :  1.74255e-04
 Reference value :  1.74256e-04
 Reference value :  1.74257e-04
 Reference value :  1.74258e-04
 Reference value :  1.74259e-04
 Reference value :  1.74261e-04
 Reference value :  1.74263e-04
 Reference value :  1.74266e-04
 Reference value :  1.74271e-04
 Reference value :  1.74277e-04
 Reference value :  1.74291e-04
 Reference value :  1.74317e-04
 Reference value :  1.74370e-04
 Reference value :  1.74474e-04
 Reference value :  1.74500e-04
 Reference value :  1.74500e-04
 Reference value :  1.74500e-04
 Reference value :  1.74500e-04
 Reference value :  1.74500e-04
 Reference value :  1.74500e-04
 Reference value :  1.74500e-04
 Reference value :  1.74500e-04
 Reference value :  1.74500e-04
 Reference value :  1.74500e-04
 Reference value :  1.74500e-04
 Reference value :  1.74501e-04
 Reference value :  1.74501e-04
 Reference value :  1.74501e-04
 Reference value :  1.74502e-04
 Reference value :  1.74503e-04
 Reference value :  1.74503e-04
 Reference value :  1.74504e-04
 Reference value :  1.74505e-04
 Reference value :  1.74506e-04
 Reference value :  1.74507e-04
 Reference value :  1.74508e-04
 Reference value :  1.74509e-04
 Reference value :  1.74510e-04
 Reference value :  1.74511e-04
 Reference value :  1.74513e-04
 Reference value :  1.74514e-04
 Reference value :  1.74516e-04
 Reference value :  1.74518e-04
 Reference value :  1.74519e-04
 Reference value :  1.74523e-04
 Reference value :  1.74528e-04
 Reference value :  1.74538e-04
 Reference value :  1.74558e-04
 Reference value :  1.74598e-04
 Reference value :  1.74678e-04
 Reference value :  1.74750e-04
 Reference value :  1.74750e-04
 Reference value :  1.74750e-04
 Reference value :  1.74750e-04
 Reference value :  1.74750e-04
 Reference value :  1.74750e-04
 Reference value :  1.74750e-04
 Reference value :  1.74750e-04
 Reference value :  1.74750e-04
 Reference value :  1.74750e-04
 Reference value :  1.74750e-04
 Reference value :  1.74750e-04
 Reference value :  1.74750e-04
 Reference value :  1.74751e-04
 Reference value :  1.74751e-04
 Reference value :  1.74752e-04
 Reference value :  1.74752e-04
 Reference value :  1.74753e-04
 Reference value :  1.74753e-04
 Reference value :  1.74754e-04
 Reference value :  1.74755e-04
 Reference value :  1.74756e-04
 Reference value :  1.74757e-04
 Reference value :  1.74758e-04
 Reference value :  1.74759e-04
 Reference value :  1.74760e-04
 Reference value :  1.74762e-04
 Reference value :  1.74764e-04
 Reference value :  1.74768e-04
 Reference value :  1.74773e-04
 Reference value :  1.74781e-04
 Reference value :  1.74799e-04
 Reference value :  1.74834e-04
 Reference value :  1.74904e-04
 Reference value :  1.75000e-04
 Reference value :  1.75000e-04
 Reference value :  1.75000e-04
 Reference value :  1.75000e-04
 Reference value :  1.75000e-04
 Reference value :  1.75000e-04
 Reference value :  1.75000e-04
 Reference value :  1.75000e-04
 Reference value :  1.75000e-04
 Reference value :  1.75000e-04
 Reference value :  1.75000e-04
 Reference value :  1.75001e-04
 Reference value :  1.75001e-04
 Reference value :  1.75001e-04
 Reference value :  1.75002e-04
 Reference value :  1.75003e-04
 Reference value :  1.75003e-04
 Reference value :  1.75004e-04
 Reference value :  1.75005e-04
 Reference value :  1.75006e-04
 Reference value :  1.75007e-04
 Reference value :  1.75007e-04
 Reference value :  1.75008e-04
 Reference value :  1.75009e-04
 Reference value :  1.75010e-04
 Reference value :  1.75012e-04
 Reference value :  1.75014e-04
 Reference value :  1.75018e-04
 Reference value :  1.75020e-04
 Reference value :  1.75022e-04
 Reference value :  1.75024e-04
 Reference value :  1.75026e-04
 Reference value :  1.75028e-04
 Reference value :  1.75030e-04
 Reference value :  1.75032e-04
 Reference value :  1.75035e-04
 Reference value :  1.75039e-04
 Reference value :  1.75044e-04
 Reference value :  1.75051e-04
 Reference value :  1.75062e-04
 Reference value :  1.75076e-04
 Reference value :  1.75091e-04
 Reference value :  1.75116e-04
 Reference value :  1.75142e-04
 Reference value :  1.75191e-04
 Reference value :  1.75250e-04
 Reference value :  1.75250e-04
 Reference value :  1.75250e-04
 Reference value :  1.75250e-04
 Reference value :  1.75250e-04
 Reference value :  1.75250e-04
 Reference value :  1.75250e-04
 Reference value :  1.75250e-04
 Reference value :  1.75250e-04
 Reference value :  1.75250e-04
 Reference value :  1.75250e-04
 Reference value :  1.75250e-04
 Reference value :  1.75250e-04
 Reference value :  1.75251e-04
 Reference value :  1.75251e-04
 Reference value :  1.75252e-04
 Reference value :  1.75252e-04
 Reference value :  1.75253e-04
 Reference value :  1.75254e-04
 Reference value :  1.75254e-04
 Reference value :  1.75255e-04
 Reference value :  1.75256e-04
 Reference value :  1.75257e-04
 Reference value :  1.75258e-04
 Reference value :  1.75259e-04
 Reference value :  1.75261e-04
 Reference value :  1.75263e-04
 Reference value :  1.75266e-04
 Reference value :  1.75271e-04
 Reference value :  1.75277e-04
 Reference value :  1.75291e-04
 Reference value :  1.75316e-04
 Reference value :  1.75368e-04
 Reference value :  1.75470e-04
 Reference value :  1.75500e-04
 Reference value :  1.75500e-04
 Reference value :  1.75500e-04
 Reference value :  1.75500e-04
 Reference value :  1.75500e-04
 Reference value :  1.75500e-04
 Reference value :  1.75500e-04
 Reference value :  1.75500e-04
 Reference value :  1.75500e-04
 Reference value :  1.75500e-04
 Reference value :  1.75500e-04
 Reference value :  1.75501e-04
 Reference value :  1.75501e-04
 Reference value :  1.75501e-04
 Reference value :  1.75502e-04
 Reference value :  1.75503e-04
 Reference value :  1.75503e-04
 Reference value :  1.75504e-04
 Reference value :  1.75505e-04
 Reference value :  1.75506e-04
 Reference value :  1.75507e-04
 Reference value :  1.75508e-04
 Reference value :  1.75509e-04
 Reference value :  1.75511e-04
 Reference value :  1.75512e-04
 Reference value :  1.75513e-04
 Reference value :  1.75515e-04
 Reference value :  1.75517e-04
 Reference value :  1.75519e-04
 Reference value :  1.75521e-04
 Reference value :  1.75525e-04
 Reference value :  1.75531e-04
 Reference value :  1.75541e-04
 Reference value :  1.75559e-04
 Reference value :  1.75591e-04
 Reference value :  1.75651e-04
 Reference value :  1.75750e-04
 Reference value :  1.75750e-04
 Reference value :  1.75750e-04
 Reference value :  1.75750e-04
 Reference value :  1.75750e-04
 Reference value :  1.75750e-04
 Reference value :  1.75750e-04
 Reference value :  1.75750e-04
 Reference value :  1.75750e-04
 Reference value :  1.75750e-04
 Reference value :  1.75750e-04
 Reference value :  1.75750e-04
 Reference value :  1.75750e-04
 Reference value :  1.75751e-04
 Reference value :  1.75751e-04
 Reference value :  1.75752e-04
 Reference value :  1.75752e-04
 Reference value :  1.75753e-04
 Reference value :  1.75753e-04
 Reference value :  1.75754e-04
 Reference value :  1.75755e-04
 Reference value :  1.75756e-04
 Reference value :  1.75757e-04
 Reference value :  1.75757e-04
 Reference value :  1.75759e-04
 Reference value :  1.75760e-04
 Reference value :  1.75762e-04
 Reference value :  1.75764e-04
 Reference value :  1.75768e-04
 Reference value :  1.75773e-04
 Reference value :  1.75781e-04
 Reference value :  1.75799e-04
 Reference value :  1.75834e-04
 Reference value :  1.75903e-04
 Reference value :  1.76000e-04
 Reference value :  1.76000e-04
 Reference value :  1.76000e-04
 Reference value :  1.76000e-04
 Reference value :  1.76000e-04
 Reference value :  1.76000e-04
 Reference value :  1.76000e-04
 Reference value :  1.76000e-04
 Reference value :  1.76000e-04
 Reference value :  1.76000e-04
 Reference value :  1.76000e-04
 Reference value :  1.76001e-04
 Reference value :  1.76001e-04
 Reference value :  1.76001e-04
 Reference value :  1.76002e-04
 Reference value :  1.76003e-04
 Reference value :  1.76003e-04
 Reference value :  1.76004e-04
 Reference value :  1.76005e-04
 Reference value :  1.76006e-04
 Reference value :  1.76007e-04
 Reference value :  1.76007e-04
 Reference value :  1.76008e-04
 Reference value :  1.76009e-04
 Reference value :  1.76010e-04
 Reference value :  1.76012e-04
 Reference value :  1.76014e-04
 Reference value :  1.76017e-04
 Reference value :  1.76019e-04
 Reference value :  1.76021e-04
 Reference value :  1.76023e-04
 Reference value :  1.76025e-04
 Reference value :  1.76026e-04
 Reference value :  1.76027e-04
 Reference value :  1.76029e-04
 Reference value :  1.76031e-04
 Reference value :  1.76034e-04
 Reference value :  1.76037e-04
 Reference value :  1.76044e-04
 Reference value :  1.76053e-04
 Reference value :  1.76061e-04
 Reference value :  1.76073e-04
 Reference value :  1.76090e-04
 Reference value :  1.76115e-04
 Reference value :  1.76164e-04
 Reference value :  1.76241e-04
 Reference value :  1.76250e-04
 Reference value :  1.76250e-04
 Reference value :  1.76250e-04
 Reference value :  1.76250e-04
 Reference value :  1.76250e-04
 Reference value :  1.76250e-04
 Reference value :  1.76250e-04
 Reference value :  1.76250e-04
 Reference value :  1.76250e-04
 Reference value :  1.76250e-04
 Reference value :  1.76250e-04
 Reference value :  1.76250e-04
 Reference value :  1.76250e-04
 Reference value :  1.76251e-04
 Reference value :  1.76251e-04
 Reference value :  1.76252e-04
 Reference value :  1.76252e-04
 Reference value :  1.76253e-04
 Reference value :  1.76253e-04
 Reference value :  1.76254e-04
 Reference value :  1.76255e-04
 Reference value :  1.76256e-04
 Reference value :  1.76257e-04
 Reference value :  1.76258e-04
 Reference value :  1.76259e-04
 Reference value :  1.76261e-04
 Reference value :  1.76263e-04
 Reference value :  1.76266e-04
 Reference value :  1.76271e-04
 Reference value :  1.76278e-04
 Reference value :  1.76292e-04
 Reference value :  1.76318e-04
 Reference value :  1.76370e-04
 Reference value :  1.76475e-04
 Reference value :  1.76500e-04
 Reference value :  1.76500e-04
 Reference value :  1.76500e-04
 Reference value :  1.76500e-04
 Reference value :  1.76500e-04
 Reference value :  1.76500e-04
 Reference value :  1.76500e-04
 Reference value :  1.76500e-04
 Reference value :  1.76500e-04
 Reference value :  1.76500e-04
 Reference value :  1.76500e-04
 Reference value :  1.76501e-04
 Reference value :  1.76501e-04
 Reference value :  1.76501e-04
 Reference value :  1.76502e-04
 Reference value :  1.76503e-04
 Reference value :  1.76503e-04
 Reference value :  1.76504e-04
 Reference value :  1.76505e-04
 Reference value :  1.76506e-04
 Reference value :  1.76507e-04
 Reference value :  1.76508e-04
 Reference value :  1.76509e-04
 Reference value :  1.76510e-04
 Reference value :  1.76512e-04
 Reference value :  1.76514e-04
 Reference value :  1.76515e-04
 Reference value :  1.76517e-04
 Reference value :  1.76519e-04
 Reference value :  1.76521e-04
 Reference value :  1.76525e-04
 Reference value :  1.76530e-04
 Reference value :  1.76539e-04
 Reference value :  1.76555e-04
 Reference value :  1.76584e-04
 Reference value :  1.76639e-04
 Reference value :  1.76738e-04
 Reference value :  1.76750e-04
 Reference value :  1.76750e-04
 Reference value :  1.76750e-04
 Reference value :  1.76750e-04
 Reference value :  1.76750e-04
 Reference value :  1.76750e-04
 Reference value :  1.76750e-04
 Reference value :  1.76750e-04
 Reference value :  1.76750e-04
 Reference value :  1.76750e-04
 Reference value :  1.76750e-04
 Reference value :  1.76750e-04
 Reference value :  1.76750e-04
 Reference value :  1.76751e-04
 Reference value :  1.76751e-04
 Reference value :  1.76752e-04
 Reference value :  1.76752e-04
 Reference value :  1.76753e-04
 Reference value :  1.76754e-04
 Reference value :  1.76754e-04
 Reference value :  1.76755e-04
 Reference value :  1.76756e-04
 Reference value :  1.76757e-04
 Reference value :  1.76757e-04
 Reference value :  1.76758e-04
 Reference value :  1.76760e-04
 Reference value :  1.76762e-04
 Reference value :  1.76764e-04
 Reference value :  1.76768e-04
 Reference value :  1.76772e-04
 Reference value :  1.76781e-04
 Reference value :  1.76798e-04
 Reference value :  1.76832e-04
 Reference value :  1.76901e-04
 Reference value :  1.77000e-04
 Reference value :  1.77000e-04
 Reference value :  1.77000e-04
 Reference value :  1.77000e-04
 Reference value :  1.77000e-04
 Reference value :  1.77000e-04
 Reference value :  1.77000e-04
 Reference value :  1.77000e-04
 Reference value :  1.77000e-04
 Reference value :  1.77000e-04
 Reference value :  1.77000e-04
 Reference value :  1.77001e-04
 Reference value :  1.77001e-04
 Reference value :  1.77001e-04
 Reference value :  1.77002e-04
 Reference value :  1.77003e-04
 Reference value :  1.77003e-04
 Reference value :  1.77004e-04
 Reference value :  1.77005e-04
 Reference value :  1.77006e-04
 Reference value :  1.77007e-04
 Reference value :  1.77007e-04
 Reference value :  1.77008e-04
 Reference value :  1.77009e-04
 Reference value :  1.77010e-04
 Reference value :  1.77012e-04
 Reference value :  1.77014e-04
 Reference value :  1.77017e-04
 Reference value :  1.77019e-04
 Reference value :  1.77022e-04
 Reference value :  1.77024e-04
 Reference value :  1.77025e-04
 Reference value :  1.77027e-04
 Reference value :  1.77028e-04
 Reference value :  1.77030e-04
 Reference value :  1.77033e-04
 Reference value :  1.77035e-04
 Reference value :  1.77040e-04
 Reference value :  1.77044e-04
 Reference value :  1.77052e-04
 Reference value :  1.77061e-04
 Reference value :  1.77078e-04
 Reference value :  1.77103e-04
 Reference value :  1.77152e-04
 Reference value :  1.77250e-04
 Reference value :  1.77250e-04
 Reference value :  1.77250e-04
 Reference value :  1.77250e-04
 Reference value :  1.77250e-04
 Reference value :  1.77250e-04
 Reference value :  1.77250e-04
 Reference value :  1.77250e-04
 Reference value :  1.77250e-04
 Reference value :  1.77250e-04
 Reference value :  1.77250e-04
 Reference value :  1.77250e-04
 Reference value :  1.77250e-04
 Reference value :  1.77251e-04
 Reference value :  1.77251e-04
 Reference value :  1.77252e-04
 Reference value :  1.77252e-04
 Reference value :  1.77253e-04
 Reference value :  1.77254e-04
 Reference value :  1.77254e-04
 Reference value :  1.77255e-04
 Reference value :  1.77256e-04
 Reference value :  1.77257e-04
 Reference value :  1.77258e-04
 Reference value :  1.77259e-04
 Reference value :  1.77261e-04
 Reference value :  1.77263e-04
 Reference value :  1.77266e-04
 Reference value :  1.77271e-04
 Reference value :  1.77277e-04
 Reference value :  1.77290e-04
 Reference value :  1.77317e-04
 Reference value :  1.77370e-04
 Reference value :  1.77475e-04
 Reference value :  1.77500e-04
 Reference value :  1.77500e-04
 Reference value :  1.77500e-04
 Reference value :  1.77500e-04
 Reference value :  1.77500e-04
 Reference value :  1.77500e-04
 Reference value :  1.77500e-04
 Reference value :  1.77500e-04
 Reference value :  1.77500e-04
 Reference value :  1.77500e-04
 Reference value :  1.77500e-04
 Reference value :  1.77501e-04
 Reference value :  1.77501e-04
 Reference value :  1.77501e-04
 Reference value :  1.77502e-04
 Reference value :  1.77503e-04
 Reference value :  1.77503e-04
 Reference value :  1.77504e-04
 Reference value :  1.77505e-04
 Reference value :  1.77506e-04
 Reference value :  1.77507e-04
 Reference value :  1.77508e-04
 Reference value :  1.77509e-04
 Reference value :  1.77511e-04
 Reference value :  1.77512e-04
 Reference value :  1.77513e-04
 Reference value :  1.77515e-04
 Reference value :  1.77516e-04
 Reference value :  1.77518e-04
 Reference value :  1.77520e-04
 Reference value :  1.77523e-04
 Reference value :  1.77528e-04
 Reference value :  1.77538e-04
 Reference value :  1.77557e-04
 Reference value :  1.77594e-04
 Reference value :  1.77667e-04
 Reference value :  1.77750e-04
 Reference value :  1.77750e-04
 Reference value :  1.77750e-04
 Reference value :  1.77750e-04
 Reference value :  1.77750e-04
 Reference value :  1.77750e-04
 Reference value :  1.77750e-04
 Reference value :  1.77750e-04
 Reference value :  1.77750e-04
 Reference value :  1.77750e-04
 Reference value :  1.77750e-04
 Reference value :  1.77750e-04
 Reference value :  1.77750e-04
 Reference value :  1.77751e-04
 Reference value :  1.77751e-04
 Reference value :  1.77752e-04
 Reference value :  1.77752e-04
 Reference value :  1.77753e-04
 Reference value :  1.77754e-04
 Reference value :  1.77754e-04
 Reference value :  1.77755e-04
 Reference value :  1.77756e-04
 Reference value :  1.77757e-04
 Reference value :  1.77757e-04
 Reference value :  1.77758e-04
 Reference value :  1.77760e-04
 Reference value :  1.77762e-04
 Reference value :  1.77764e-04
 Reference value :  1.77768e-04
 Reference value :  1.77772e-04
 Reference value :  1.77781e-04
 Reference value :  1.77798e-04
 Reference value :  1.77833e-04
 Reference value :  1.77902e-04
 Reference value :  1.78000e-04
 Reference value :  1.78000e-04
 Reference value :  1.78000e-04
 Reference value :  1.78000e-04
 Reference value :  1.78000e-04
 Reference value :  1.78000e-04
 Reference value :  1.78000e-04
 Reference value :  1.78000e-04
 Reference value :  1.78000e-04
 Reference value :  1.78000e-04
 Reference value :  1.78000e-04
 Reference value :  1.78001e-04
 Reference value :  1.78001e-04
 Reference value :  1.78001e-04
 Reference value :  1.78002e-04
 Reference value :  1.78003e-04
 Reference value :  1.78003e-04
 Reference value :  1.78004e-04
 Reference value :  1.78005e-04
 Reference value :  1.78006e-04
 Reference value :  1.78007e-04
 Reference value :  1.78007e-04
 Reference value :  1.78008e-04
 Reference value :  1.78009e-04
 Reference value :  1.78010e-04
 Reference value :  1.78012e-04
 Reference value :  1.78014e-04
 Reference value :  1.78017e-04
 Reference value :  1.78020e-04
 Reference value :  1.78023e-04
 Reference value :  1.78025e-04
 Reference value :  1.78028e-04
 Reference value :  1.78034e-04
 Reference value :  1.78042e-04
 Reference value :  1.78054e-04
 Reference value :  1.78077e-04
 Reference value :  1.78121e-04
 Reference value :  1.78210e-04
 Reference value :  1.78250e-04
 Reference value :  1.78250e-04
 Reference value :  1.78250e-04
 Reference value :  1.78250e-04
 Reference value :  1.78250e-04
 Reference value :  1.78250e-04
 Reference value :  1.78250e-04
 Reference value :  1.78250e-04
 Reference value :  1.78250e-04
 Reference value :  1.78250e-04
 Reference value :  1.78250e-04
 Reference value :  1.78250e-04
 Reference value :  1.78250e-04
 Reference value :  1.78251e-04
 Reference value :  1.78251e-04
 Reference value :  1.78252e-04
 Reference value :  1.78252e-04
 Reference value :  1.78253e-04
 Reference value :  1.78254e-04
 Reference value :  1.78254e-04
 Reference value :  1.78255e-04
 Reference value :  1.78257e-04
 Reference value :  1.78258e-04
 Reference value :  1.78259e-04
 Reference value :  1.78262e-04
 Reference value :  1.78265e-04
 Reference value :  1.78269e-04
 Reference value :  1.78273e-04
 Reference value :  1.78283e-04
 Reference value :  1.78302e-04
 Reference value :  1.78340e-04
 Reference value :  1.78416e-04
 Reference value :  1.78500e-04
No. of Data Rows : 27522
ngspice-44 done
