
Note: Compatibility modes selected: hs a


Circuit: ** sch_path: /home/issa/cace/sar-adc-using-sky130-pdk/runs/run_2025-09-20_12-51-37/parameters/sampling_rate/run_14/sampling_rate.sch

option SCALE: Scale is set to 1e-06 for instance and model parameters
option SCALE: Scale is set to 1e-06 for instance and model parameters
option SCALE: Scale is set to 1e-06 for instance and model parameters
option SCALE: Scale is set to 1e-06 for instance and model parameters
Doing analysis at TEMP = 27.000000 and TNOM = 27.000000

Using KLU as Direct Linear Solver
Operating point simulation skipped by 'uic',
  now using transient initial conditions.
 Reference value :  1.00000e-12
 Reference value :  1.08400e-12
 Reference value :  1.68424e-12
 Reference value :  6.12905e-12
 Reference value :  3.25876e-11
 Reference value :  1.05145e-10
 Reference value :  1.77174e-10
 Reference value :  6.59829e-10
 Reference value :  1.82807e-09
 Reference value :  3.12729e-09
 Reference value :  4.88103e-09
 Reference value :  6.52185e-09
 Reference value :  7.80184e-09
 Reference value :  9.35853e-09
 Reference value :  1.08809e-08
 Reference value :  1.34530e-08
 Reference value :  2.09888e-08
 Reference value :  2.51602e-08
 Reference value :  3.77055e-08
 Reference value :  7.88071e-08
 Reference value :  2.50100e-07
 Reference value :  2.50170e-07
 Reference value :  2.50223e-07
 Reference value :  2.50411e-07
 Reference value :  2.51014e-07
 Reference value :  2.52429e-07
 Reference value :  2.53826e-07
 Reference value :  2.55087e-07
 Reference value :  2.56454e-07
 Reference value :  2.61343e-07
 Reference value :  2.99209e-07
 Reference value :  5.00000e-07
 Reference value :  5.00070e-07
 Reference value :  5.00124e-07
 Reference value :  5.00348e-07
 Reference value :  5.00857e-07
 Reference value :  5.01627e-07
 Reference value :  5.02570e-07
 Reference value :  5.03660e-07
 Reference value :  5.04989e-07
 Reference value :  5.08675e-07
 Reference value :  5.09872e-07
 Reference value :  5.12529e-07
 Reference value :  5.16006e-07
 Reference value :  5.25615e-07
 Reference value :  5.68279e-07
 Reference value :  7.50100e-07
 Reference value :  7.50170e-07
 Reference value :  7.50224e-07
 Reference value :  7.50448e-07
 Reference value :  7.51576e-07
 Reference value :  7.52526e-07
 Reference value :  7.53780e-07
 Reference value :  7.54923e-07
 Reference value :  7.56350e-07
 Reference value :  7.61210e-07
 Reference value :  8.02468e-07
 Reference value :  1.00000e-06
 Reference value :  1.00007e-06
 Reference value :  1.00012e-06
 Reference value :  1.00035e-06
 Reference value :  1.00086e-06
 Reference value :  1.00163e-06
 Reference value :  1.00306e-06
 Reference value :  1.00418e-06
 Reference value :  1.00524e-06
 Reference value :  1.00649e-06
 Reference value :  1.01030e-06
 Reference value :  1.01342e-06
 Reference value :  1.01454e-06
 Reference value :  1.01646e-06
 Reference value :  1.01865e-06
 Reference value :  1.02432e-06
 Reference value :  1.08926e-06
 Reference value :  1.25010e-06
 Reference value :  1.25013e-06
 Reference value :  1.25021e-06
 Reference value :  1.25045e-06
 Reference value :  1.25157e-06
 Reference value :  1.25252e-06
 Reference value :  1.25379e-06
 Reference value :  1.25504e-06
 Reference value :  1.25806e-06
 Reference value :  1.26596e-06
 Reference value :  1.31311e-06
 Reference value :  1.50000e-06
 Reference value :  1.50007e-06
 Reference value :  1.50012e-06
 Reference value :  1.50035e-06
 Reference value :  1.50086e-06
 Reference value :  1.50163e-06
 Reference value :  1.50306e-06
 Reference value :  1.50489e-06
 Reference value :  1.50629e-06
 Reference value :  1.50794e-06
 Reference value :  1.50982e-06
 Reference value :  1.51209e-06
 Reference value :  1.52666e-06
 Reference value :  1.63363e-06
 Reference value :  1.75013e-06
 Reference value :  1.75021e-06
 Reference value :  1.75032e-06
 Reference value :  1.75110e-06
 Reference value :  1.75203e-06
 Reference value :  1.75325e-06
 Reference value :  1.75377e-06
 Reference value :  1.75491e-06
 Reference value :  1.75635e-06
 Reference value :  1.76128e-06
 Reference value :  1.78122e-06
 Reference value :  1.93698e-06
 Reference value :  2.00003e-06
 Reference value :  2.00011e-06
 Reference value :  2.00016e-06
 Reference value :  2.00054e-06
 Reference value :  2.00119e-06
 Reference value :  2.00210e-06
 Reference value :  2.00307e-06
 Reference value :  2.00418e-06
 Reference value :  2.00524e-06
 Reference value :  2.00732e-06
 Reference value :  2.01028e-06
 Reference value :  2.01186e-06
 Reference value :  2.01454e-06
 Reference value :  2.01648e-06
 Reference value :  2.01869e-06
 Reference value :  2.02445e-06
 Reference value :  2.03017e-06
 Reference value :  2.03601e-06
 Reference value :  2.04263e-06
 Reference value :  2.04885e-06
 Reference value :  2.05922e-06
 Reference value :  2.08266e-06
 Reference value :  2.12316e-06
 Reference value :  2.25010e-06
 Reference value :  2.25017e-06
 Reference value :  2.25022e-06
 Reference value :  2.25045e-06
 Reference value :  2.25157e-06
 Reference value :  2.25203e-06
 Reference value :  2.25324e-06
 Reference value :  2.25375e-06
 Reference value :  2.25501e-06
 Reference value :  2.25798e-06
 Reference value :  2.27243e-06
 Reference value :  2.36544e-06
 Reference value :  2.50001e-06
 Reference value :  2.50010e-06
 Reference value :  2.50016e-06
 Reference value :  2.50054e-06
 Reference value :  2.50119e-06
 Reference value :  2.50203e-06
 Reference value :  2.50300e-06
 Reference value :  2.50411e-06
 Reference value :  2.50562e-06
 Reference value :  2.50625e-06
 Reference value :  2.50795e-06
 Reference value :  2.50986e-06
 Reference value :  2.51216e-06
 Reference value :  2.54162e-06
 Reference value :  2.75011e-06
 Reference value :  2.75020e-06
 Reference value :  2.75026e-06
 Reference value :  2.75070e-06
 Reference value :  2.75157e-06
 Reference value :  2.75251e-06
 Reference value :  2.75377e-06
 Reference value :  2.75490e-06
 Reference value :  2.75623e-06
 Reference value :  2.75890e-06
 Reference value :  2.76483e-06
 Reference value :  2.80334e-06
 Reference value :  3.00000e-06
 Reference value :  3.00007e-06
 Reference value :  3.00012e-06
 Reference value :  3.00035e-06
 Reference value :  3.00086e-06
 Reference value :  3.00163e-06
 Reference value :  3.00308e-06
 Reference value :  3.00471e-06
 Reference value :  3.00574e-06
 Reference value :  3.00710e-06
 Reference value :  3.00921e-06
 Reference value :  3.01010e-06
 Reference value :  3.01197e-06
 Reference value :  3.01371e-06
 Reference value :  3.01526e-06
 Reference value :  3.01707e-06
 Reference value :  3.01905e-06
 Reference value :  3.02574e-06
 Reference value :  3.05640e-06
 Reference value :  3.11249e-06
 Reference value :  3.17051e-06
 Reference value :  3.23988e-06
 Reference value :  3.25013e-06
 Reference value :  3.25021e-06
 Reference value :  3.25032e-06
 Reference value :  3.25109e-06
 Reference value :  3.25203e-06
 Reference value :  3.25324e-06
 Reference value :  3.25435e-06
 Reference value :  3.25565e-06
 Reference value :  3.25957e-06
 Reference value :  3.28508e-06
 Reference value :  3.46650e-06
 Reference value :  3.50003e-06
 Reference value :  3.50011e-06
 Reference value :  3.50022e-06
 Reference value :  3.50086e-06
 Reference value :  3.50159e-06
 Reference value :  3.50300e-06
 Reference value :  3.50411e-06
 Reference value :  3.50561e-06
 Reference value :  3.50625e-06
 Reference value :  3.50794e-06
 Reference value :  3.50985e-06
 Reference value :  3.51451e-06
 Reference value :  3.56916e-06
 Reference value :  3.75011e-06
 Reference value :  3.75020e-06
 Reference value :  3.75026e-06
 Reference value :  3.75070e-06
 Reference value :  3.75157e-06
 Reference value :  3.75251e-06
 Reference value :  3.75377e-06
 Reference value :  3.75490e-06
 Reference value :  3.75623e-06
 Reference value :  3.75889e-06
 Reference value :  3.76481e-06
 Reference value :  3.80286e-06
 Reference value :  4.00000e-06
 Reference value :  4.00007e-06
 Reference value :  4.00012e-06
 Reference value :  4.00035e-06
 Reference value :  4.00086e-06
 Reference value :  4.00163e-06
 Reference value :  4.00308e-06
 Reference value :  4.00419e-06
 Reference value :  4.00471e-06
 Reference value :  4.00574e-06
 Reference value :  4.00710e-06
 Reference value :  4.00921e-06
 Reference value :  4.01010e-06
 Reference value :  4.01197e-06
 Reference value :  4.01370e-06
 Reference value :  4.01525e-06
 Reference value :  4.01706e-06
 Reference value :  4.01903e-06
 Reference value :  4.02562e-06
 Reference value :  4.05276e-06
 Reference value :  4.07623e-06
 Reference value :  4.08982e-06
 Reference value :  4.10557e-06
 Reference value :  4.14436e-06
 Reference value :  4.21241e-06
 Reference value :  4.25010e-06
 Reference value :  4.25017e-06
 Reference value :  4.25022e-06
 Reference value :  4.25045e-06
 Reference value :  4.25156e-06
 Reference value :  4.25251e-06
 Reference value :  4.25375e-06
 Reference value :  4.25499e-06
 Reference value :  4.25795e-06
 Reference value :  4.26560e-06
 Reference value :  4.27143e-06
 Reference value :  4.27909e-06
 Reference value :  4.30970e-06
 Reference value :  4.33392e-06
 Reference value :  4.41527e-06
 Reference value :  4.50000e-06
 Reference value :  4.50007e-06
 Reference value :  4.50012e-06
 Reference value :  4.50035e-06
 Reference value :  4.50086e-06
 Reference value :  4.50159e-06
 Reference value :  4.50252e-06
 Reference value :  4.50356e-06
 Reference value :  4.50561e-06
 Reference value :  4.50625e-06
 Reference value :  4.50795e-06
 Reference value :  4.50986e-06
 Reference value :  4.51451e-06
 Reference value :  4.54045e-06
 Reference value :  4.74015e-06
 Reference value :  4.75013e-06
 Reference value :  4.75021e-06
 Reference value :  4.75032e-06
 Reference value :  4.75109e-06
 Reference value :  4.75203e-06
 Reference value :  4.75324e-06
 Reference value :  4.75436e-06
 Reference value :  4.75548e-06
 Reference value :  4.75704e-06
 Reference value :  4.75889e-06
 Reference value :  4.76478e-06
 Reference value :  4.78468e-06
 Reference value :  5.00000e-06
 Reference value :  5.00007e-06
 Reference value :  5.00012e-06
 Reference value :  5.00022e-06
 Reference value :  5.00086e-06
 Reference value :  5.00163e-06
 Reference value :  5.00258e-06
 Reference value :  5.00364e-06
 Reference value :  5.00471e-06
 Reference value :  5.00574e-06
 Reference value :  5.00711e-06
 Reference value :  5.00807e-06
 Reference value :  5.01010e-06
 Reference value :  5.01197e-06
 Reference value :  5.01370e-06
 Reference value :  5.01525e-06
 Reference value :  5.01707e-06
 Reference value :  5.01904e-06
 Reference value :  5.02567e-06
 Reference value :  5.02967e-06
 Reference value :  5.03369e-06
 Reference value :  5.03919e-06
 Reference value :  5.04479e-06
 Reference value :  5.06037e-06
 Reference value :  5.12199e-06
 Reference value :  5.25010e-06
 Reference value :  5.25017e-06
 Reference value :  5.25022e-06
 Reference value :  5.25045e-06
 Reference value :  5.25156e-06
 Reference value :  5.25251e-06
 Reference value :  5.25377e-06
 Reference value :  5.25501e-06
 Reference value :  5.25803e-06
 Reference value :  5.26581e-06
 Reference value :  5.31191e-06
 Reference value :  5.50000e-06
 Reference value :  5.50003e-06
 Reference value :  5.50010e-06
 Reference value :  5.50012e-06
 Reference value :  5.50035e-06
 Reference value :  5.50086e-06
 Reference value :  5.50163e-06
 Reference value :  5.50258e-06
 Reference value :  5.50363e-06
 Reference value :  5.50568e-06
 Reference value :  5.50630e-06
 Reference value :  5.50794e-06
 Reference value :  5.51093e-06
 Reference value :  5.52653e-06
 Reference value :  5.75010e-06
 Reference value :  5.75017e-06
 Reference value :  5.75022e-06
 Reference value :  5.75045e-06
 Reference value :  5.75156e-06
 Reference value :  5.75251e-06
 Reference value :  5.75377e-06
 Reference value :  5.75490e-06
 Reference value :  5.75634e-06
 Reference value :  5.76125e-06
 Reference value :  5.78100e-06
 Reference value :  5.93533e-06
 Reference value :  6.00007e-06
 Reference value :  6.00012e-06
 Reference value :  6.00035e-06
 Reference value :  6.00086e-06
 Reference value :  6.00163e-06
 Reference value :  6.00258e-06
 Reference value :  6.00364e-06
 Reference value :  6.00473e-06
 Reference value :  6.00580e-06
 Reference value :  6.00866e-06
 Reference value :  6.01030e-06
 Reference value :  6.01341e-06
 Reference value :  6.01557e-06
 Reference value :  6.01755e-06
 Reference value :  6.01987e-06
 Reference value :  6.02948e-06
 Reference value :  6.04655e-06
 Reference value :  6.05577e-06
 Reference value :  6.07846e-06
 Reference value :  6.13283e-06
 Reference value :  6.19796e-06
 Reference value :  6.23215e-06
 Reference value :  6.25013e-06
 Reference value :  6.25021e-06
 Reference value :  6.25032e-06
 Reference value :  6.25109e-06
 Reference value :  6.25202e-06
 Reference value :  6.25323e-06
 Reference value :  6.25377e-06
 Reference value :  6.25501e-06
 Reference value :  6.25646e-06
 Reference value :  6.26256e-06
 Reference value :  6.31211e-06
 Reference value :  6.50000e-06
 Reference value :  6.50007e-06
 Reference value :  6.50012e-06
 Reference value :  6.50035e-06
 Reference value :  6.50086e-06
 Reference value :  6.50163e-06
 Reference value :  6.50307e-06
 Reference value :  6.50489e-06
 Reference value :  6.50630e-06
 Reference value :  6.50794e-06
 Reference value :  6.50983e-06
 Reference value :  6.51210e-06
 Reference value :  6.54158e-06
 Reference value :  6.75011e-06
 Reference value :  6.75020e-06
 Reference value :  6.75026e-06
 Reference value :  6.75070e-06
 Reference value :  6.75156e-06
 Reference value :  6.75251e-06
 Reference value :  6.75376e-06
 Reference value :  6.75490e-06
 Reference value :  6.75633e-06
 Reference value :  6.76123e-06
 Reference value :  6.78085e-06
 Reference value :  7.00000e-06
 Reference value :  7.00007e-06
 Reference value :  7.00012e-06
 Reference value :  7.00035e-06
 Reference value :  7.00086e-06
 Reference value :  7.00163e-06
 Reference value :  7.00258e-06
 Reference value :  7.00364e-06
 Reference value :  7.00473e-06
 Reference value :  7.00524e-06
 Reference value :  7.00732e-06
 Reference value :  7.01030e-06
 Reference value :  7.01341e-06
 Reference value :  7.01455e-06
 Reference value :  7.01649e-06
 Reference value :  7.01870e-06
 Reference value :  7.02448e-06
 Reference value :  7.03765e-06
 Reference value :  7.04442e-06
 Reference value :  7.05407e-06
 Reference value :  7.08054e-06
 Reference value :  7.12574e-06
 Reference value :  7.22779e-06
 Reference value :  7.25013e-06
 Reference value :  7.25020e-06
 Reference value :  7.25026e-06
 Reference value :  7.25045e-06
 Reference value :  7.25156e-06
 Reference value :  7.25251e-06
 Reference value :  7.25375e-06
 Reference value :  7.25502e-06
 Reference value :  7.25647e-06
 Reference value :  7.26255e-06
 Reference value :  7.28589e-06
 Reference value :  7.47261e-06
 Reference value :  7.50003e-06
 Reference value :  7.50010e-06
 Reference value :  7.50012e-06
 Reference value :  7.50022e-06
 Reference value :  7.50054e-06
 Reference value :  7.50086e-06
 Reference value :  7.50159e-06
 Reference value :  7.50251e-06
 Reference value :  7.50300e-06
 Reference value :  7.50411e-06
 Reference value :  7.50562e-06
 Reference value :  7.50625e-06
 Reference value :  7.50795e-06
 Reference value :  7.51111e-06
 Reference value :  7.52615e-06
 Reference value :  7.62562e-06
 Reference value :  7.75013e-06
 Reference value :  7.75021e-06
 Reference value :  7.75045e-06
 Reference value :  7.75156e-06
 Reference value :  7.75251e-06
 Reference value :  7.75376e-06
 Reference value :  7.75490e-06
 Reference value :  7.75622e-06
 Reference value :  7.75785e-06
 Reference value :  7.76038e-06
 Reference value :  7.76471e-06
 Reference value :  7.77421e-06
 Reference value :  7.83455e-06
 Reference value :  8.00001e-06
 Reference value :  8.00007e-06
 Reference value :  8.00012e-06
 Reference value :  8.00035e-06
 Reference value :  8.00086e-06
 Reference value :  8.00163e-06
 Reference value :  8.00258e-06
 Reference value :  8.00364e-06
 Reference value :  8.00467e-06
 Reference value :  8.00569e-06
 Reference value :  8.00773e-06
 Reference value :  8.00930e-06
 Reference value :  8.01093e-06
 Reference value :  8.01368e-06
 Reference value :  8.01771e-06
 Reference value :  8.02426e-06
 Reference value :  8.03361e-06
 Reference value :  8.04109e-06
 Reference value :  8.05178e-06
 Reference value :  8.08643e-06
 Reference value :  8.15809e-06
 Reference value :  8.25010e-06
 Reference value :  8.25013e-06
 Reference value :  8.25020e-06
 Reference value :  8.25026e-06
 Reference value :  8.25045e-06
 Reference value :  8.25109e-06
 Reference value :  8.25156e-06
 Reference value :  8.25202e-06
 Reference value :  8.25251e-06
 Reference value :  8.25392e-06
 Reference value :  8.25576e-06
 Reference value :  8.25838e-06
 Reference value :  8.26309e-06
 Reference value :  8.28930e-06
 Reference value :  8.49900e-06
 Reference value :  8.50003e-06
 Reference value :  8.50011e-06
 Reference value :  8.50016e-06
 Reference value :  8.50035e-06
 Reference value :  8.50096e-06
 Reference value :  8.50197e-06
 Reference value :  8.50310e-06
 Reference value :  8.50368e-06
 Reference value :  8.50475e-06
 Reference value :  8.50596e-06
 Reference value :  8.50667e-06
 Reference value :  8.51292e-06
 Reference value :  8.52408e-06
 Reference value :  8.52949e-06
 Reference value :  8.53330e-06
 Reference value :  8.53722e-06
 Reference value :  8.54012e-06
 Reference value :  8.54283e-06
 Reference value :  8.54526e-06
 Reference value :  8.55120e-06
 Reference value :  8.55475e-06
 Reference value :  8.56561e-06
 Reference value :  8.58446e-06
 Reference value :  8.59901e-06
 Reference value :  8.62042e-06
 Reference value :  8.65066e-06
 Reference value :  8.69963e-06
 Reference value :  8.75011e-06
 Reference value :  8.75017e-06
 Reference value :  8.75021e-06
 Reference value :  8.75022e-06
 Reference value :  8.75032e-06
 Reference value :  8.75070e-06
 Reference value :  8.75156e-06
 Reference value :  8.75202e-06
 Reference value :  8.75251e-06
 Reference value :  8.75322e-06
 Reference value :  8.75375e-06
 Reference value :  8.75435e-06
 Reference value :  8.75496e-06
 Reference value :  8.75559e-06
 Reference value :  8.75638e-06
 Reference value :  8.75789e-06
 Reference value :  8.76539e-06
 Reference value :  8.77166e-06
 Reference value :  8.80930e-06
 Reference value :  8.85949e-06
 Reference value :  8.95987e-06
No. of Data Rows : 1343
ngspice-44 done
