
Note: Compatibility modes selected: hs a


Circuit: ** sch_path: /home/ece/cace/sar-adc-using-sky130-pdk/runs/run_2025-09-13_02-53-27/parameters/sndr/run_4/sndr_enob_fom.sch

option SCALE: Scale is set to 1e-06 for instance and model parameters
option SCALE: Scale is set to 1e-06 for instance and model parameters
option SCALE: Scale is set to 1e-06 for instance and model parameters
option SCALE: Scale is set to 1e-06 for instance and model parameters
Doing analysis at TEMP = 27.000000 and TNOM = 27.000000

Using KLU as Direct Linear Solver
Operating point simulation skipped by 'uic',
  now using transient initial conditions.
 Reference value :  1.00000e-12
 Reference value :  1.02800e-12
 Reference value :  1.19600e-12
 Reference value :  2.34797e-12
 Reference value :  6.46248e-12
 Reference value :  1.99106e-11
 Reference value :  5.64646e-11
 Reference value :  1.04874e-10
 Reference value :  1.73108e-10
 Reference value :  6.64175e-10
 Reference value :  1.38348e-09
 Reference value :  3.33797e-09
 Reference value :  5.06933e-09
 Reference value :  7.11817e-09
 Reference value :  9.14434e-09
 Reference value :  1.09548e-08
 Reference value :  1.74583e-08
 Reference value :  2.99379e-08
 Reference value :  3.95506e-08
 Reference value :  1.03445e-07
 Reference value :  2.50130e-07
 Reference value :  2.50223e-07
 Reference value :  2.50380e-07
 Reference value :  2.50910e-07
 Reference value :  2.52065e-07
 Reference value :  2.53899e-07
 Reference value :  2.56493e-07
 Reference value :  2.63357e-07
 Reference value :  3.41183e-07
 Reference value :  5.00030e-07
 Reference value :  5.00124e-07
 Reference value :  5.00500e-07
 Reference value :  5.01286e-07
 Reference value :  5.02646e-07
 Reference value :  5.04830e-07
 Reference value :  5.07963e-07
 Reference value :  5.12028e-07
 Reference value :  5.15240e-07
 Reference value :  5.21525e-07
 Reference value :  5.54342e-07
 Reference value :  7.50110e-07
 Reference value :  7.50208e-07
 Reference value :  7.50444e-07
 Reference value :  7.51387e-07
 Reference value :  7.53027e-07
 Reference value :  7.54418e-07
 Reference value :  7.55798e-07
 Reference value :  7.57610e-07
 Reference value :  7.59345e-07
 Reference value :  7.64935e-07
 Reference value :  7.89518e-07
 Reference value :  1.00000e-06
 Reference value :  1.00007e-06
 Reference value :  1.00012e-06
 Reference value :  1.00034e-06
 Reference value :  1.00083e-06
 Reference value :  1.00176e-06
 Reference value :  1.00268e-06
 Reference value :  1.00392e-06
 Reference value :  1.00499e-06
 Reference value :  1.00557e-06
 Reference value :  1.00609e-06
 Reference value :  1.00755e-06
 Reference value :  1.01069e-06
 Reference value :  1.01283e-06
 Reference value :  1.01368e-06
 Reference value :  1.01547e-06
 Reference value :  1.01747e-06
 Reference value :  1.02132e-06
 Reference value :  1.13267e-06
 Reference value :  1.25017e-06
 Reference value :  1.25044e-06
 Reference value :  1.25185e-06
 Reference value :  1.25438e-06
 Reference value :  1.25764e-06
 Reference value :  1.28467e-06
 Reference value :  1.50003e-06
 Reference value :  1.50016e-06
 Reference value :  1.50129e-06
 Reference value :  1.50265e-06
 Reference value :  1.50473e-06
 Reference value :  1.50734e-06
 Reference value :  1.50903e-06
 Reference value :  1.51484e-06
 Reference value :  1.65883e-06
 Reference value :  1.75013e-06
 Reference value :  1.75022e-06
 Reference value :  1.75068e-06
 Reference value :  1.75138e-06
 Reference value :  1.75302e-06
 Reference value :  1.75440e-06
 Reference value :  1.75672e-06
 Reference value :  1.75844e-06
 Reference value :  1.76491e-06
 Reference value :  1.80903e-06
 Reference value :  2.00001e-06
 Reference value :  2.00011e-06
 Reference value :  2.00034e-06
 Reference value :  2.00128e-06
 Reference value :  2.00268e-06
 Reference value :  2.00391e-06
 Reference value :  2.00499e-06
 Reference value :  2.00609e-06
 Reference value :  2.00843e-06
 Reference value :  2.01071e-06
 Reference value :  2.01284e-06
 Reference value :  2.01451e-06
 Reference value :  2.01645e-06
 Reference value :  2.01853e-06
 Reference value :  2.02129e-06
 Reference value :  2.05646e-06
 Reference value :  2.16258e-06
 Reference value :  2.25013e-06
 Reference value :  2.25026e-06
 Reference value :  2.25095e-06
 Reference value :  2.25236e-06
 Reference value :  2.25437e-06
 Reference value :  2.25664e-06
 Reference value :  2.26541e-06
 Reference value :  2.40947e-06
 Reference value :  2.50007e-06
 Reference value :  2.50012e-06
 Reference value :  2.50034e-06
 Reference value :  2.50129e-06
 Reference value :  2.50218e-06
 Reference value :  2.50395e-06
 Reference value :  2.50553e-06
 Reference value :  2.50734e-06
 Reference value :  2.50903e-06
 Reference value :  2.51241e-06
 Reference value :  2.54755e-06
 Reference value :  2.75011e-06
 Reference value :  2.75020e-06
 Reference value :  2.75032e-06
 Reference value :  2.75094e-06
 Reference value :  2.75185e-06
 Reference value :  2.75376e-06
 Reference value :  2.75505e-06
 Reference value :  2.75758e-06
 Reference value :  2.75934e-06
 Reference value :  2.76488e-06
 Reference value :  2.80817e-06
 Reference value :  3.00001e-06
 Reference value :  3.00010e-06
 Reference value :  3.00022e-06
 Reference value :  3.00083e-06
 Reference value :  3.00176e-06
 Reference value :  3.00268e-06
 Reference value :  3.00391e-06
 Reference value :  3.00441e-06
 Reference value :  3.00556e-06
 Reference value :  3.00670e-06
 Reference value :  3.00973e-06
 Reference value :  3.01071e-06
 Reference value :  3.01285e-06
 Reference value :  3.01450e-06
 Reference value :  3.01645e-06
 Reference value :  3.01852e-06
 Reference value :  3.02305e-06
 Reference value :  3.04975e-06
 Reference value :  3.07431e-06
 Reference value :  3.09081e-06
 Reference value :  3.10953e-06
 Reference value :  3.19081e-06
 Reference value :  3.25011e-06
 Reference value :  3.25020e-06
 Reference value :  3.25026e-06
 Reference value :  3.25069e-06
 Reference value :  3.25138e-06
 Reference value :  3.25302e-06
 Reference value :  3.25504e-06
 Reference value :  3.25917e-06
 Reference value :  3.30608e-06
 Reference value :  3.50000e-06
 Reference value :  3.50007e-06
 Reference value :  3.50012e-06
 Reference value :  3.50034e-06
 Reference value :  3.50128e-06
 Reference value :  3.50219e-06
 Reference value :  3.50323e-06
 Reference value :  3.50442e-06
 Reference value :  3.50616e-06
 Reference value :  3.50818e-06
 Reference value :  3.51036e-06
 Reference value :  3.51551e-06
 Reference value :  3.57751e-06
 Reference value :  3.75013e-06
 Reference value :  3.75021e-06
 Reference value :  3.75032e-06
 Reference value :  3.75094e-06
 Reference value :  3.75185e-06
 Reference value :  3.75302e-06
 Reference value :  3.75440e-06
 Reference value :  3.75671e-06
 Reference value :  3.76143e-06
 Reference value :  3.80586e-06
 Reference value :  4.00000e-06
 Reference value :  4.00007e-06
 Reference value :  4.00012e-06
 Reference value :  4.00034e-06
 Reference value :  4.00128e-06
 Reference value :  4.00219e-06
 Reference value :  4.00329e-06
 Reference value :  4.00440e-06
 Reference value :  4.00557e-06
 Reference value :  4.00609e-06
 Reference value :  4.00757e-06
 Reference value :  4.00999e-06
 Reference value :  4.01280e-06
 Reference value :  4.01388e-06
 Reference value :  4.01603e-06
 Reference value :  4.01707e-06
 Reference value :  4.01938e-06
 Reference value :  4.02610e-06
 Reference value :  4.04032e-06
 Reference value :  4.04906e-06
 Reference value :  4.05841e-06
 Reference value :  4.07629e-06
 Reference value :  4.10051e-06
 Reference value :  4.25010e-06
 Reference value :  4.25013e-06
 Reference value :  4.25020e-06
 Reference value :  4.25026e-06
 Reference value :  4.25044e-06
 Reference value :  4.25094e-06
 Reference value :  4.25185e-06
 Reference value :  4.25302e-06
 Reference value :  4.25440e-06
 Reference value :  4.25675e-06
 Reference value :  4.26184e-06
 Reference value :  4.28490e-06
 Reference value :  4.40424e-06
 Reference value :  4.50003e-06
 Reference value :  4.50011e-06
 Reference value :  4.50022e-06
 Reference value :  4.50083e-06
 Reference value :  4.50176e-06
 Reference value :  4.50265e-06
 Reference value :  4.50395e-06
 Reference value :  4.50553e-06
 Reference value :  4.50734e-06
 Reference value :  4.50903e-06
 Reference value :  4.51241e-06
 Reference value :  4.54757e-06
 Reference value :  4.75011e-06
 Reference value :  4.75020e-06
 Reference value :  4.75044e-06
 Reference value :  4.75138e-06
 Reference value :  4.75376e-06
 Reference value :  4.75576e-06
 Reference value :  4.75842e-06
 Reference value :  4.76831e-06
 Reference value :  5.00000e-06
 Reference value :  5.00011e-06
 Reference value :  5.00050e-06
 Reference value :  5.00176e-06
 Reference value :  5.00329e-06
 Reference value :  5.00441e-06
 Reference value :  5.00556e-06
 Reference value :  5.00670e-06
 Reference value :  5.00973e-06
 Reference value :  5.01174e-06
 Reference value :  5.01368e-06
 Reference value :  5.01652e-06
 Reference value :  5.01995e-06
 Reference value :  5.03373e-06
 Reference value :  5.05603e-06
 Reference value :  5.11372e-06
 Reference value :  5.21969e-06
 Reference value :  5.25020e-06
 Reference value :  5.25044e-06
 Reference value :  5.25138e-06
 Reference value :  5.25302e-06
 Reference value :  5.25501e-06
 Reference value :  5.25910e-06
 Reference value :  5.33993e-06
 Reference value :  5.50007e-06
 Reference value :  5.50016e-06
 Reference value :  5.50050e-06
 Reference value :  5.50129e-06
 Reference value :  5.50218e-06
 Reference value :  5.50332e-06
 Reference value :  5.50473e-06
 Reference value :  5.50657e-06
 Reference value :  5.50734e-06
 Reference value :  5.50903e-06
 Reference value :  5.51956e-06
 Reference value :  5.75011e-06
 Reference value :  5.75022e-06
 Reference value :  5.75094e-06
 Reference value :  5.75235e-06
 Reference value :  5.75439e-06
 Reference value :  5.75757e-06
 Reference value :  5.76214e-06
 Reference value :  5.80736e-06
 Reference value :  6.00003e-06
 Reference value :  6.00016e-06
 Reference value :  6.00128e-06
 Reference value :  6.00329e-06
 Reference value :  6.00441e-06
 Reference value :  6.00556e-06
 Reference value :  6.00756e-06
 Reference value :  6.01071e-06
 Reference value :  6.01368e-06
 Reference value :  6.01651e-06
 Reference value :  6.01880e-06
 Reference value :  6.02177e-06
 Reference value :  6.03076e-06
 Reference value :  6.04497e-06
 Reference value :  6.15811e-06
 Reference value :  6.25011e-06
 Reference value :  6.25017e-06
 Reference value :  6.25026e-06
 Reference value :  6.25069e-06
 Reference value :  6.25138e-06
 Reference value :  6.25302e-06
 Reference value :  6.25436e-06
 Reference value :  6.25662e-06
 Reference value :  6.26529e-06
 Reference value :  6.33951e-06
 Reference value :  6.50003e-06
 Reference value :  6.50011e-06
 Reference value :  6.50016e-06
 Reference value :  6.50050e-06
 Reference value :  6.50129e-06
 Reference value :  6.50218e-06
 Reference value :  6.50332e-06
 Reference value :  6.50395e-06
 Reference value :  6.50473e-06
 Reference value :  6.50657e-06
 Reference value :  6.50734e-06
 Reference value :  6.50903e-06
 Reference value :  6.51119e-06
 Reference value :  6.51955e-06
 Reference value :  6.58507e-06
 Reference value :  6.75011e-06
 Reference value :  6.75020e-06
 Reference value :  6.75026e-06
 Reference value :  6.75044e-06
 Reference value :  6.75094e-06
 Reference value :  6.75138e-06
 Reference value :  6.75235e-06
 Reference value :  6.75376e-06
 Reference value :  6.75439e-06
 Reference value :  6.75576e-06
 Reference value :  6.75757e-06
 Reference value :  6.75933e-06
 Reference value :  6.76484e-06
 Reference value :  6.80722e-06
 Reference value :  7.00001e-06
 Reference value :  7.00010e-06
 Reference value :  7.00050e-06
 Reference value :  7.00219e-06
 Reference value :  7.00441e-06
 Reference value :  7.00609e-06
 Reference value :  7.00973e-06
 Reference value :  7.01175e-06
 Reference value :  7.01368e-06
 Reference value :  7.01756e-06
 Reference value :  7.02369e-06
 Reference value :  7.18322e-06
 Reference value :  7.25021e-06
 Reference value :  7.25094e-06
 Reference value :  7.25302e-06
 Reference value :  7.25501e-06
 Reference value :  7.26138e-06
 Reference value :  7.40424e-06
 Reference value :  7.50010e-06
 Reference value :  7.50022e-06
 Reference value :  7.50129e-06
 Reference value :  7.50332e-06
 Reference value :  7.50473e-06
 Reference value :  7.50734e-06
 Reference value :  7.50903e-06
 Reference value :  7.51955e-06
 Reference value :  7.75011e-06
 Reference value :  7.75026e-06
 Reference value :  7.75138e-06
 Reference value :  7.75302e-06
 Reference value :  7.75438e-06
 Reference value :  7.75669e-06
 Reference value :  7.75933e-06
 Reference value :  7.77519e-06
 Reference value :  8.00000e-06
 Reference value :  8.00003e-06
 Reference value :  8.00010e-06
 Reference value :  8.00016e-06
 Reference value :  8.00050e-06
 Reference value :  8.00128e-06
 Reference value :  8.00219e-06
 Reference value :  8.00329e-06
 Reference value :  8.00441e-06
 Reference value :  8.00556e-06
 Reference value :  8.00670e-06
 Reference value :  8.00927e-06
 Reference value :  8.01078e-06
 Reference value :  8.01481e-06
 Reference value :  8.01662e-06
 Reference value :  8.02382e-06
 Reference value :  8.03659e-06
 Reference value :  8.05535e-06
 Reference value :  8.08540e-06
 Reference value :  8.25010e-06
 Reference value :  8.25017e-06
 Reference value :  8.25022e-06
 Reference value :  8.25045e-06
 Reference value :  8.25139e-06
 Reference value :  8.25237e-06
 Reference value :  8.25387e-06
 Reference value :  8.25659e-06
 Reference value :  8.26176e-06
 Reference value :  8.28059e-06
 Reference value :  8.49647e-06
 Reference value :  8.50003e-06
 Reference value :  8.50011e-06
 Reference value :  8.50022e-06
 Reference value :  8.50096e-06
 Reference value :  8.50213e-06
 Reference value :  8.50317e-06
 Reference value :  8.50382e-06
 Reference value :  8.50534e-06
 Reference value :  8.50600e-06
 Reference value :  8.50885e-06
 Reference value :  8.51894e-06
 Reference value :  8.52429e-06
 Reference value :  8.52840e-06
 Reference value :  8.53144e-06
 Reference value :  8.53671e-06
 Reference value :  8.54370e-06
 Reference value :  8.55507e-06
 Reference value :  8.56372e-06
 Reference value :  8.57875e-06
 Reference value :  8.62692e-06
 Reference value :  8.75010e-06
 Reference value :  8.75021e-06
 Reference value :  8.75069e-06
 Reference value :  8.75185e-06
 Reference value :  8.75373e-06
 Reference value :  8.75578e-06
 Reference value :  8.76189e-06
 Reference value :  8.83872e-06
 Reference value :  9.00003e-06
 Reference value :  9.00012e-06
 Reference value :  9.00050e-06
 Reference value :  9.00129e-06
 Reference value :  9.00218e-06
 Reference value :  9.00393e-06
 Reference value :  9.00554e-06
 Reference value :  9.00783e-06
 Reference value :  9.01044e-06
 Reference value :  9.01355e-06
 Reference value :  9.01731e-06
 Reference value :  9.02604e-06
 Reference value :  9.05676e-06
 Reference value :  9.22616e-06
 Reference value :  9.25013e-06
 Reference value :  9.25021e-06
 Reference value :  9.25032e-06
 Reference value :  9.25094e-06
 Reference value :  9.25185e-06
 Reference value :  9.25376e-06
 Reference value :  9.25505e-06
 Reference value :  9.25670e-06
 Reference value :  9.25842e-06
 Reference value :  9.26213e-06
 Reference value :  9.30802e-06
 Reference value :  9.50001e-06
 Reference value :  9.50010e-06
 Reference value :  9.50016e-06
 Reference value :  9.50050e-06
 Reference value :  9.50128e-06
 Reference value :  9.50219e-06
 Reference value :  9.50329e-06
 Reference value :  9.50441e-06
 Reference value :  9.50556e-06
 Reference value :  9.50755e-06
 Reference value :  9.51070e-06
 Reference value :  9.51369e-06
 Reference value :  9.51646e-06
 Reference value :  9.52137e-06
 Reference value :  9.54149e-06
 Reference value :  9.69895e-06
 Reference value :  9.75013e-06
 Reference value :  9.75022e-06
 Reference value :  9.75068e-06
 Reference value :  9.75138e-06
 Reference value :  9.75235e-06
 Reference value :  9.75375e-06
 Reference value :  9.75501e-06
 Reference value :  9.75662e-06
 Reference value :  9.75911e-06
 Reference value :  9.77228e-06
 Reference value :  9.90442e-06
 Reference value :  1.00001e-05
 Reference value :  1.00001e-05
 Reference value :  1.00003e-05
 Reference value :  1.00013e-05
 Reference value :  1.00022e-05
 Reference value :  1.00039e-05
 Reference value :  1.00055e-05
 Reference value :  1.00073e-05
 Reference value :  1.00090e-05
 Reference value :  1.00124e-05
 Reference value :  1.00476e-05
 Reference value :  1.02501e-05
 Reference value :  1.02502e-05
 Reference value :  1.02504e-05
 Reference value :  1.02514e-05
 Reference value :  1.02530e-05
 Reference value :  1.02544e-05
 Reference value :  1.02567e-05
 Reference value :  1.02593e-05
 Reference value :  1.02649e-05
 Reference value :  1.03076e-05
 Reference value :  1.05000e-05
 Reference value :  1.05001e-05
 Reference value :  1.05002e-05
 Reference value :  1.05013e-05
 Reference value :  1.05027e-05
 Reference value :  1.05039e-05
 Reference value :  1.05050e-05
 Reference value :  1.05061e-05
 Reference value :  1.05084e-05
 Reference value :  1.05107e-05
 Reference value :  1.05128e-05
 Reference value :  1.05145e-05
 Reference value :  1.05165e-05
 Reference value :  1.05185e-05
 Reference value :  1.05231e-05
 Reference value :  1.05413e-05
 Reference value :  1.06244e-05
 Reference value :  1.07109e-05
 Reference value :  1.07501e-05
 Reference value :  1.07502e-05
 Reference value :  1.07503e-05
 Reference value :  1.07504e-05
 Reference value :  1.07509e-05
 Reference value :  1.07514e-05
 Reference value :  1.07524e-05
 Reference value :  1.07538e-05
 Reference value :  1.07550e-05
 Reference value :  1.07576e-05
 Reference value :  1.07653e-05
 Reference value :  1.08042e-05
 Reference value :  1.10000e-05
 Reference value :  1.10001e-05
 Reference value :  1.10001e-05
 Reference value :  1.10003e-05
 Reference value :  1.10008e-05
 Reference value :  1.10013e-05
 Reference value :  1.10022e-05
 Reference value :  1.10033e-05
 Reference value :  1.10047e-05
 Reference value :  1.10066e-05
 Reference value :  1.10073e-05
 Reference value :  1.10090e-05
 Reference value :  1.10112e-05
 Reference value :  1.10195e-05
 Reference value :  1.10851e-05
 Reference value :  1.12501e-05
 Reference value :  1.12502e-05
 Reference value :  1.12503e-05
 Reference value :  1.12507e-05
 Reference value :  1.12514e-05
 Reference value :  1.12524e-05
 Reference value :  1.12538e-05
 Reference value :  1.12550e-05
 Reference value :  1.12567e-05
 Reference value :  1.12584e-05
 Reference value :  1.12621e-05
 Reference value :  1.12752e-05
 Reference value :  1.14246e-05
 Reference value :  1.15000e-05
 Reference value :  1.15001e-05
 Reference value :  1.15003e-05
 Reference value :  1.15013e-05
 Reference value :  1.15022e-05
 Reference value :  1.15033e-05
 Reference value :  1.15044e-05
 Reference value :  1.15056e-05
 Reference value :  1.15061e-05
 Reference value :  1.15076e-05
 Reference value :  1.15097e-05
 Reference value :  1.15107e-05
 Reference value :  1.15128e-05
 Reference value :  1.15145e-05
 Reference value :  1.15164e-05
 Reference value :  1.15185e-05
 Reference value :  1.15231e-05
 Reference value :  1.15497e-05
 Reference value :  1.15749e-05
 Reference value :  1.15843e-05
 Reference value :  1.15889e-05
 Reference value :  1.15969e-05
 Reference value :  1.16265e-05
 Reference value :  1.16610e-05
 Reference value :  1.17501e-05
 Reference value :  1.17502e-05
 Reference value :  1.17503e-05
 Reference value :  1.17507e-05
 Reference value :  1.17514e-05
 Reference value :  1.17530e-05
 Reference value :  1.17544e-05
 Reference value :  1.17557e-05
 Reference value :  1.17592e-05
 Reference value :  1.17724e-05
 Reference value :  1.18403e-05
 Reference value :  1.20000e-05
 Reference value :  1.20001e-05
 Reference value :  1.20002e-05
 Reference value :  1.20008e-05
 Reference value :  1.20018e-05
 Reference value :  1.20027e-05
 Reference value :  1.20038e-05
 Reference value :  1.20062e-05
 Reference value :  1.20093e-05
 Reference value :  1.20116e-05
 Reference value :  1.20285e-05
 Reference value :  1.22501e-05
 Reference value :  1.22502e-05
 Reference value :  1.22503e-05
 Reference value :  1.22509e-05
 Reference value :  1.22518e-05
 Reference value :  1.22530e-05
 Reference value :  1.22544e-05
 Reference value :  1.22567e-05
 Reference value :  1.22655e-05
 Reference value :  1.23397e-05
 Reference value :  1.25000e-05
 Reference value :  1.25001e-05
 Reference value :  1.25002e-05
 Reference value :  1.25008e-05
 Reference value :  1.25018e-05
 Reference value :  1.25027e-05
 Reference value :  1.25039e-05
 Reference value :  1.25050e-05
 Reference value :  1.25056e-05
 Reference value :  1.25067e-05
 Reference value :  1.25100e-05
 Reference value :  1.25128e-05
 Reference value :  1.25149e-05
 Reference value :  1.25171e-05
 Reference value :  1.25211e-05
 Reference value :  1.25306e-05
 Reference value :  1.25417e-05
 Reference value :  1.25531e-05
 Reference value :  1.25616e-05
 Reference value :  1.25788e-05
 Reference value :  1.26350e-05
 Reference value :  1.27501e-05
 Reference value :  1.27502e-05
 Reference value :  1.27503e-05
 Reference value :  1.27509e-05
 Reference value :  1.27518e-05
 Reference value :  1.27537e-05
 Reference value :  1.27558e-05
 Reference value :  1.27594e-05
 Reference value :  1.28384e-05
 Reference value :  1.30001e-05
 Reference value :  1.30002e-05
 Reference value :  1.30013e-05
 Reference value :  1.30026e-05
 Reference value :  1.30047e-05
 Reference value :  1.30073e-05
 Reference value :  1.30090e-05
 Reference value :  1.30148e-05
 Reference value :  1.31599e-05
 Reference value :  1.32502e-05
 Reference value :  1.32503e-05
 Reference value :  1.32514e-05
 Reference value :  1.32530e-05
 Reference value :  1.32544e-05
 Reference value :  1.32567e-05
 Reference value :  1.32584e-05
 Reference value :  1.32621e-05
 Reference value :  1.33078e-05
 Reference value :  1.35000e-05
 Reference value :  1.35001e-05
 Reference value :  1.35002e-05
 Reference value :  1.35013e-05
 Reference value :  1.35022e-05
 Reference value :  1.35039e-05
 Reference value :  1.35050e-05
 Reference value :  1.35061e-05
 Reference value :  1.35097e-05
 Reference value :  1.35117e-05
 Reference value :  1.35137e-05
 Reference value :  1.35165e-05
 Reference value :  1.35200e-05
 Reference value :  1.35337e-05
 Reference value :  1.35590e-05
 Reference value :  1.36279e-05
 Reference value :  1.37463e-05
 Reference value :  1.37502e-05
 Reference value :  1.37503e-05
 Reference value :  1.37509e-05
 Reference value :  1.37518e-05
 Reference value :  1.37538e-05
 Reference value :  1.37550e-05
 Reference value :  1.37576e-05
 Reference value :  1.37723e-05
 Reference value :  1.39040e-05
 Reference value :  1.40001e-05
 Reference value :  1.40001e-05
 Reference value :  1.40003e-05
 Reference value :  1.40013e-05
 Reference value :  1.40022e-05
 Reference value :  1.40039e-05
 Reference value :  1.40047e-05
 Reference value :  1.40066e-05
 Reference value :  1.40073e-05
 Reference value :  1.40090e-05
 Reference value :  1.40124e-05
 Reference value :  1.40476e-05
 Reference value :  1.42501e-05
 Reference value :  1.42502e-05
 Reference value :  1.42502e-05
 Reference value :  1.42504e-05
 Reference value :  1.42514e-05
 Reference value :  1.42524e-05
 Reference value :  1.42538e-05
 Reference value :  1.42550e-05
 Reference value :  1.42576e-05
 Reference value :  1.42593e-05
 Reference value :  1.42648e-05
 Reference value :  1.43074e-05
 Reference value :  1.45000e-05
 Reference value :  1.45001e-05
 Reference value :  1.45002e-05
 Reference value :  1.45008e-05
 Reference value :  1.45018e-05
 Reference value :  1.45027e-05
 Reference value :  1.45039e-05
 Reference value :  1.45050e-05
 Reference value :  1.45061e-05
 Reference value :  1.45084e-05
 Reference value :  1.45107e-05
 Reference value :  1.45129e-05
 Reference value :  1.45145e-05
 Reference value :  1.45176e-05
 Reference value :  1.45220e-05
 Reference value :  1.45310e-05
 Reference value :  1.45539e-05
 Reference value :  1.47501e-05
 Reference value :  1.47502e-05
 Reference value :  1.47503e-05
 Reference value :  1.47507e-05
 Reference value :  1.47514e-05
 Reference value :  1.47530e-05
 Reference value :  1.47544e-05
 Reference value :  1.47566e-05
 Reference value :  1.47653e-05
 Reference value :  1.48390e-05
 Reference value :  1.50000e-05
 Reference value :  1.50001e-05
 Reference value :  1.50003e-05
 Reference value :  1.50013e-05
 Reference value :  1.50026e-05
 Reference value :  1.50039e-05
 Reference value :  1.50055e-05
 Reference value :  1.50073e-05
 Reference value :  1.50082e-05
 Reference value :  1.50090e-05
 Reference value :  1.50112e-05
 Reference value :  1.50289e-05
 Reference value :  1.52501e-05
 Reference value :  1.52502e-05
 Reference value :  1.52502e-05
 Reference value :  1.52504e-05
 Reference value :  1.52509e-05
 Reference value :  1.52514e-05
 Reference value :  1.52524e-05
 Reference value :  1.52538e-05
 Reference value :  1.52544e-05
 Reference value :  1.52558e-05
 Reference value :  1.52576e-05
 Reference value :  1.52584e-05
 Reference value :  1.52621e-05
 Reference value :  1.52872e-05
 Reference value :  1.54228e-05
 Reference value :  1.55013e-05
 Reference value :  1.55051e-05
 Reference value :  1.55074e-05
 Reference value :  1.55104e-05
 Reference value :  1.55124e-05
 Reference value :  1.55141e-05
 Reference value :  1.55157e-05
 Reference value :  1.55176e-05
 Reference value :  1.55198e-05
 Reference value :  1.55230e-05
 Reference value :  1.55438e-05
 Reference value :  1.56039e-05
 Reference value :  1.56160e-05
 Reference value :  1.56681e-05
 Reference value :  1.57501e-05
 Reference value :  1.57502e-05
 Reference value :  1.57503e-05
 Reference value :  1.57507e-05
 Reference value :  1.57514e-05
 Reference value :  1.57530e-05
 Reference value :  1.57544e-05
 Reference value :  1.57566e-05
 Reference value :  1.57613e-05
 Reference value :  1.58387e-05
 Reference value :  1.60000e-05
 Reference value :  1.60001e-05
 Reference value :  1.60005e-05
 Reference value :  1.60013e-05
 Reference value :  1.60022e-05
 Reference value :  1.60032e-05
 Reference value :  1.60044e-05
 Reference value :  1.60062e-05
 Reference value :  1.60082e-05
 Reference value :  1.60116e-05
 Reference value :  1.60283e-05
 Reference value :  1.62501e-05
 Reference value :  1.62502e-05
 Reference value :  1.62502e-05
 Reference value :  1.62507e-05
 Reference value :  1.62514e-05
 Reference value :  1.62530e-05
 Reference value :  1.62544e-05
 Reference value :  1.62567e-05
 Reference value :  1.62725e-05
 Reference value :  1.64050e-05
 Reference value :  1.65001e-05
 Reference value :  1.65002e-05
 Reference value :  1.65008e-05
 Reference value :  1.65022e-05
 Reference value :  1.65039e-05
 Reference value :  1.65050e-05
 Reference value :  1.65061e-05
 Reference value :  1.65093e-05
 Reference value :  1.65136e-05
 Reference value :  1.67501e-05
 Reference value :  1.67502e-05
 Reference value :  1.67504e-05
 Reference value :  1.67514e-05
 Reference value :  1.67539e-05
 Reference value :  1.67592e-05
 Reference value :  1.68256e-05
 Reference value :  1.70001e-05
 Reference value :  1.70002e-05
 Reference value :  1.70009e-05
 Reference value :  1.70026e-05
 Reference value :  1.70045e-05
 Reference value :  1.70060e-05
 Reference value :  1.70107e-05
 Reference value :  1.70243e-05
 Reference value :  1.70284e-05
 Reference value :  1.70345e-05
 Reference value :  1.70401e-05
 Reference value :  1.70465e-05
 Reference value :  1.70540e-05
 Reference value :  1.70703e-05
 Reference value :  1.70856e-05
 Reference value :  1.71418e-05
 Reference value :  1.72501e-05
 Reference value :  1.72502e-05
 Reference value :  1.72504e-05
 Reference value :  1.72514e-05
 Reference value :  1.72530e-05
 Reference value :  1.72551e-05
 Reference value :  1.72594e-05
 Reference value :  1.73045e-05
 Reference value :  1.75000e-05
 Reference value :  1.75001e-05
 Reference value :  1.75003e-05
 Reference value :  1.75013e-05
 Reference value :  1.75026e-05
 Reference value :  1.75047e-05
 Reference value :  1.75078e-05
 Reference value :  1.75117e-05
 Reference value :  1.75173e-05
 Reference value :  1.75325e-05
 Reference value :  1.76316e-05
 Reference value :  1.77502e-05
 Reference value :  1.77502e-05
 Reference value :  1.77503e-05
 Reference value :  1.77509e-05
 Reference value :  1.77518e-05
 Reference value :  1.77538e-05
 Reference value :  1.77551e-05
 Reference value :  1.77567e-05
 Reference value :  1.77593e-05
 Reference value :  1.77683e-05
 Reference value :  1.78491e-05
 Reference value :  1.80012e-05
 Reference value :  1.80050e-05
 Reference value :  1.80072e-05
 Reference value :  1.80102e-05
 Reference value :  1.80122e-05
 Reference value :  1.80141e-05
 Reference value :  1.80159e-05
 Reference value :  1.80190e-05
 Reference value :  1.80235e-05
 Reference value :  1.80556e-05
 Reference value :  1.82501e-05
 Reference value :  1.82502e-05
 Reference value :  1.82502e-05
 Reference value :  1.82504e-05
 Reference value :  1.82514e-05
 Reference value :  1.82524e-05
 Reference value :  1.82543e-05
 Reference value :  1.82566e-05
 Reference value :  1.82613e-05
 Reference value :  1.82831e-05
 Reference value :  1.85000e-05
 Reference value :  1.85001e-05
 Reference value :  1.85002e-05
 Reference value :  1.85005e-05
 Reference value :  1.85013e-05
 Reference value :  1.85022e-05
 Reference value :  1.85039e-05
 Reference value :  1.85055e-05
 Reference value :  1.85074e-05
 Reference value :  1.85082e-05
 Reference value :  1.85090e-05
 Reference value :  1.85112e-05
 Reference value :  1.85148e-05
 Reference value :  1.85472e-05
 Reference value :  1.87501e-05
 Reference value :  1.87502e-05
 Reference value :  1.87502e-05
 Reference value :  1.87507e-05
 Reference value :  1.87514e-05
 Reference value :  1.87530e-05
 Reference value :  1.87544e-05
 Reference value :  1.87567e-05
 Reference value :  1.87584e-05
 Reference value :  1.87621e-05
 Reference value :  1.87874e-05
 Reference value :  1.90000e-05
 Reference value :  1.90001e-05
 Reference value :  1.90003e-05
 Reference value :  1.90013e-05
 Reference value :  1.90022e-05
 Reference value :  1.90033e-05
 Reference value :  1.90044e-05
 Reference value :  1.90056e-05
 Reference value :  1.90067e-05
 Reference value :  1.90107e-05
 Reference value :  1.90137e-05
 Reference value :  1.90165e-05
 Reference value :  1.90197e-05
 Reference value :  1.90323e-05
 Reference value :  1.91630e-05
 Reference value :  1.92501e-05
 Reference value :  1.92502e-05
 Reference value :  1.92507e-05
 Reference value :  1.92514e-05
 Reference value :  1.92530e-05
 Reference value :  1.92544e-05
 Reference value :  1.92557e-05
 Reference value :  1.92591e-05
 Reference value :  1.92723e-05
 Reference value :  1.94044e-05
 Reference value :  1.95018e-05
 Reference value :  1.95071e-05
 Reference value :  1.95103e-05
 Reference value :  1.95151e-05
 Reference value :  1.95386e-05
 Reference value :  1.97501e-05
 Reference value :  1.97502e-05
 Reference value :  1.97502e-05
 Reference value :  1.97504e-05
 Reference value :  1.97514e-05
 Reference value :  1.97530e-05
 Reference value :  1.97542e-05
 Reference value :  1.97563e-05
 Reference value :  1.97581e-05
 Reference value :  1.97620e-05
 Reference value :  1.97818e-05
 Reference value :  1.98645e-05
 Reference value :  2.00000e-05
 Reference value :  2.00001e-05
 Reference value :  2.00002e-05
 Reference value :  2.00008e-05
 Reference value :  2.00013e-05
 Reference value :  2.00022e-05
 Reference value :  2.00033e-05
 Reference value :  2.00044e-05
 Reference value :  2.00056e-05
 Reference value :  2.00076e-05
 Reference value :  2.00107e-05
 Reference value :  2.00129e-05
 Reference value :  2.00145e-05
 Reference value :  2.00165e-05
 Reference value :  2.00185e-05
 Reference value :  2.00213e-05
 Reference value :  2.00409e-05
 Reference value :  2.00620e-05
 Reference value :  2.00725e-05
 Reference value :  2.00811e-05
 Reference value :  2.00889e-05
 Reference value :  2.01065e-05
 Reference value :  2.01416e-05
 Reference value :  2.02501e-05
 Reference value :  2.02502e-05
 Reference value :  2.02502e-05
 Reference value :  2.02504e-05
 Reference value :  2.02514e-05
 Reference value :  2.02530e-05
 Reference value :  2.02544e-05
 Reference value :  2.02557e-05
 Reference value :  2.02592e-05
 Reference value :  2.02839e-05
 Reference value :  2.05000e-05
 Reference value :  2.05018e-05
 Reference value :  2.05053e-05
 Reference value :  2.05071e-05
 Reference value :  2.05089e-05
 Reference value :  2.05103e-05
 Reference value :  2.05133e-05
 Reference value :  2.05280e-05
 Reference value :  2.06295e-05
 Reference value :  2.07501e-05
 Reference value :  2.07502e-05
 Reference value :  2.07503e-05
 Reference value :  2.07514e-05
 Reference value :  2.07530e-05
 Reference value :  2.07542e-05
 Reference value :  2.07555e-05
 Reference value :  2.07573e-05
 Reference value :  2.07638e-05
 Reference value :  2.07974e-05
 Reference value :  2.10000e-05
 Reference value :  2.10001e-05
 Reference value :  2.10002e-05
 Reference value :  2.10005e-05
 Reference value :  2.10013e-05
 Reference value :  2.10022e-05
 Reference value :  2.10033e-05
 Reference value :  2.10044e-05
 Reference value :  2.10056e-05
 Reference value :  2.10067e-05
 Reference value :  2.10100e-05
 Reference value :  2.10128e-05
 Reference value :  2.10149e-05
 Reference value :  2.10171e-05
 Reference value :  2.10228e-05
 Reference value :  2.10400e-05
 Reference value :  2.10547e-05
 Reference value :  2.10650e-05
 Reference value :  2.10750e-05
 Reference value :  2.10939e-05
 Reference value :  2.11806e-05
 Reference value :  2.12501e-05
 Reference value :  2.12502e-05
 Reference value :  2.12503e-05
 Reference value :  2.12514e-05
 Reference value :  2.12530e-05
 Reference value :  2.12551e-05
 Reference value :  2.12618e-05
 Reference value :  2.13384e-05
 Reference value :  2.15000e-05
 Reference value :  2.15001e-05
 Reference value :  2.15002e-05
 Reference value :  2.15005e-05
 Reference value :  2.15013e-05
 Reference value :  2.15022e-05
 Reference value :  2.15033e-05
 Reference value :  2.15039e-05
 Reference value :  2.15047e-05
 Reference value :  2.15066e-05
 Reference value :  2.15073e-05
 Reference value :  2.15090e-05
 Reference value :  2.15112e-05
 Reference value :  2.15196e-05
 Reference value :  2.15850e-05
 Reference value :  2.17501e-05
 Reference value :  2.17502e-05
 Reference value :  2.17502e-05
 Reference value :  2.17503e-05
 Reference value :  2.17507e-05
 Reference value :  2.17514e-05
 Reference value :  2.17524e-05
 Reference value :  2.17538e-05
 Reference value :  2.17544e-05
 Reference value :  2.17558e-05
 Reference value :  2.17576e-05
 Reference value :  2.17584e-05
 Reference value :  2.17607e-05
 Reference value :  2.17648e-05
 Reference value :  2.17874e-05
 Reference value :  2.19252e-05
 Reference value :  2.20012e-05
 Reference value :  2.20037e-05
 Reference value :  2.20050e-05
 Reference value :  2.20072e-05
 Reference value :  2.20093e-05
 Reference value :  2.20102e-05
 Reference value :  2.20122e-05
 Reference value :  2.20133e-05
 Reference value :  2.20149e-05
 Reference value :  2.20158e-05
 Reference value :  2.20178e-05
 Reference value :  2.20200e-05
 Reference value :  2.20234e-05
 Reference value :  2.20393e-05
 Reference value :  2.20552e-05
 Reference value :  2.20885e-05
 Reference value :  2.22146e-05
 Reference value :  2.22501e-05
 Reference value :  2.22502e-05
 Reference value :  2.22503e-05
 Reference value :  2.22509e-05
 Reference value :  2.22519e-05
 Reference value :  2.22537e-05
 Reference value :  2.22550e-05
 Reference value :  2.22575e-05
 Reference value :  2.22650e-05
 Reference value :  2.23378e-05
 Reference value :  2.25000e-05
 Reference value :  2.25001e-05
 Reference value :  2.25002e-05
 Reference value :  2.25008e-05
 Reference value :  2.25018e-05
 Reference value :  2.25026e-05
 Reference value :  2.25039e-05
 Reference value :  2.25055e-05
 Reference value :  2.25073e-05
 Reference value :  2.25090e-05
 Reference value :  2.25124e-05
 Reference value :  2.25288e-05
 Reference value :  2.27501e-05
 Reference value :  2.27502e-05
 Reference value :  2.27503e-05
 Reference value :  2.27507e-05
 Reference value :  2.27514e-05
 Reference value :  2.27530e-05
 Reference value :  2.27544e-05
 Reference value :  2.27567e-05
 Reference value :  2.27584e-05
 Reference value :  2.27621e-05
 Reference value :  2.28075e-05
 Reference value :  2.30013e-05
 Reference value :  2.30051e-05
 Reference value :  2.30073e-05
 Reference value :  2.30094e-05
 Reference value :  2.30103e-05
 Reference value :  2.30122e-05
 Reference value :  2.30140e-05
 Reference value :  2.30167e-05
 Reference value :  2.30199e-05
 Reference value :  2.30263e-05
 Reference value :  2.30336e-05
 Reference value :  2.30628e-05
 Reference value :  2.31581e-05
 Reference value :  2.32501e-05
 Reference value :  2.32502e-05
 Reference value :  2.32502e-05
 Reference value :  2.32503e-05
 Reference value :  2.32504e-05
 Reference value :  2.32509e-05
 Reference value :  2.32514e-05
 Reference value :  2.32524e-05
 Reference value :  2.32537e-05
 Reference value :  2.32543e-05
 Reference value :  2.32566e-05
 Reference value :  2.32613e-05
 Reference value :  2.33034e-05
 Reference value :  2.35000e-05
 Reference value :  2.35001e-05
 Reference value :  2.35002e-05
 Reference value :  2.35005e-05
 Reference value :  2.35013e-05
 Reference value :  2.35022e-05
 Reference value :  2.35033e-05
 Reference value :  2.35047e-05
 Reference value :  2.35066e-05
 Reference value :  2.35073e-05
 Reference value :  2.35090e-05
 Reference value :  2.35112e-05
 Reference value :  2.35196e-05
 Reference value :  2.35848e-05
 Reference value :  2.37501e-05
 Reference value :  2.37502e-05
 Reference value :  2.37503e-05
 Reference value :  2.37507e-05
 Reference value :  2.37514e-05
 Reference value :  2.37524e-05
 Reference value :  2.37538e-05
 Reference value :  2.37550e-05
 Reference value :  2.37567e-05
 Reference value :  2.37584e-05
 Reference value :  2.37621e-05
 Reference value :  2.37875e-05
 Reference value :  2.39262e-05
 Reference value :  2.40000e-05
 Reference value :  2.40001e-05
 Reference value :  2.40002e-05
 Reference value :  2.40008e-05
 Reference value :  2.40018e-05
 Reference value :  2.40027e-05
 Reference value :  2.40039e-05
 Reference value :  2.40044e-05
 Reference value :  2.40056e-05
 Reference value :  2.40061e-05
 Reference value :  2.40084e-05
 Reference value :  2.40107e-05
 Reference value :  2.40129e-05
 Reference value :  2.40145e-05
 Reference value :  2.40165e-05
 Reference value :  2.40186e-05
 Reference value :  2.40231e-05
 Reference value :  2.40458e-05
 Reference value :  2.42501e-05
 Reference value :  2.42502e-05
 Reference value :  2.42502e-05
 Reference value :  2.42504e-05
 Reference value :  2.42514e-05
 Reference value :  2.42530e-05
 Reference value :  2.42544e-05
 Reference value :  2.42566e-05
 Reference value :  2.42614e-05
 Reference value :  2.43049e-05
 Reference value :  2.45000e-05
 Reference value :  2.45001e-05
 Reference value :  2.45002e-05
 Reference value :  2.45003e-05
 Reference value :  2.45008e-05
 Reference value :  2.45013e-05
 Reference value :  2.45022e-05
 Reference value :  2.45032e-05
 Reference value :  2.45044e-05
 Reference value :  2.45062e-05
 Reference value :  2.45082e-05
 Reference value :  2.45104e-05
 Reference value :  2.45129e-05
 Reference value :  2.45447e-05
 Reference value :  2.47501e-05
 Reference value :  2.47502e-05
 Reference value :  2.47502e-05
 Reference value :  2.47504e-05
 Reference value :  2.47514e-05
 Reference value :  2.47524e-05
 Reference value :  2.47538e-05
 Reference value :  2.47550e-05
 Reference value :  2.47567e-05
 Reference value :  2.47592e-05
 Reference value :  2.47838e-05
 Reference value :  2.49050e-05
 Reference value :  2.50000e-05
 Reference value :  2.50001e-05
 Reference value :  2.50002e-05
 Reference value :  2.50008e-05
 Reference value :  2.50018e-05
 Reference value :  2.50027e-05
 Reference value :  2.50039e-05
 Reference value :  2.50050e-05
 Reference value :  2.50061e-05
 Reference value :  2.50076e-05
 Reference value :  2.50093e-05
 Reference value :  2.50114e-05
 Reference value :  2.50442e-05
 Reference value :  2.52501e-05
 Reference value :  2.52502e-05
 Reference value :  2.52502e-05
 Reference value :  2.52504e-05
 Reference value :  2.52510e-05
 Reference value :  2.52519e-05
 Reference value :  2.52539e-05
 Reference value :  2.52556e-05
 Reference value :  2.52579e-05
 Reference value :  2.52649e-05
 Reference value :  2.52964e-05
 Reference value :  2.54968e-05
 Reference value :  2.55001e-05
 Reference value :  2.55001e-05
 Reference value :  2.55002e-05
 Reference value :  2.55003e-05
 Reference value :  2.55009e-05
 Reference value :  2.55021e-05
 Reference value :  2.55026e-05
 Reference value :  2.55038e-05
 Reference value :  2.55053e-05
 Reference value :  2.55059e-05
 Reference value :  2.55086e-05
 Reference value :  2.55183e-05
 Reference value :  2.55236e-05
 Reference value :  2.55284e-05
 Reference value :  2.55317e-05
 Reference value :  2.55374e-05
 Reference value :  2.55413e-05
 Reference value :  2.55481e-05
 Reference value :  2.55704e-05
 Reference value :  2.55856e-05
 Reference value :  2.55986e-05
 Reference value :  2.56594e-05
 Reference value :  2.57502e-05
 Reference value :  2.57503e-05
 Reference value :  2.57514e-05
 Reference value :  2.57530e-05
 Reference value :  2.57551e-05
 Reference value :  2.57594e-05
 Reference value :  2.57728e-05
 Reference value :  2.58382e-05
 Reference value :  2.60000e-05
 Reference value :  2.60001e-05
 Reference value :  2.60002e-05
 Reference value :  2.60008e-05
 Reference value :  2.60018e-05
 Reference value :  2.60026e-05
 Reference value :  2.60039e-05
 Reference value :  2.60047e-05
 Reference value :  2.60066e-05
 Reference value :  2.60078e-05
 Reference value :  2.60104e-05
 Reference value :  2.60138e-05
 Reference value :  2.60174e-05
 Reference value :  2.60218e-05
 Reference value :  2.60571e-05
 Reference value :  2.62501e-05
 Reference value :  2.62502e-05
 Reference value :  2.62503e-05
 Reference value :  2.62509e-05
 Reference value :  2.62519e-05
 Reference value :  2.62530e-05
 Reference value :  2.62544e-05
 Reference value :  2.62567e-05
 Reference value :  2.62584e-05
 Reference value :  2.62621e-05
 Reference value :  2.62857e-05
 Reference value :  2.65000e-05
 Reference value :  2.65017e-05
 Reference value :  2.65052e-05
 Reference value :  2.65071e-05
 Reference value :  2.65102e-05
 Reference value :  2.65113e-05
 Reference value :  2.65150e-05
 Reference value :  2.65172e-05
 Reference value :  2.65213e-05
 Reference value :  2.65411e-05
 Reference value :  2.66985e-05
 Reference value :  2.67501e-05
 Reference value :  2.67502e-05
 Reference value :  2.67504e-05
 Reference value :  2.67514e-05
 Reference value :  2.67524e-05
 Reference value :  2.67542e-05
 Reference value :  2.67554e-05
 Reference value :  2.67572e-05
 Reference value :  2.67639e-05
 Reference value :  2.67989e-05
 Reference value :  2.70000e-05
 Reference value :  2.70001e-05
 Reference value :  2.70001e-05
 Reference value :  2.70003e-05
 Reference value :  2.70008e-05
 Reference value :  2.70018e-05
 Reference value :  2.70026e-05
 Reference value :  2.70039e-05
 Reference value :  2.70056e-05
 Reference value :  2.70074e-05
 Reference value :  2.70090e-05
 Reference value :  2.70147e-05
 Reference value :  2.71531e-05
 Reference value :  2.72502e-05
 Reference value :  2.72503e-05
 Reference value :  2.72507e-05
 Reference value :  2.72514e-05
 Reference value :  2.72530e-05
 Reference value :  2.72544e-05
 Reference value :  2.72567e-05
 Reference value :  2.72584e-05
 Reference value :  2.72621e-05
 Reference value :  2.72752e-05
 Reference value :  2.73481e-05
 Reference value :  2.75000e-05
 Reference value :  2.75001e-05
 Reference value :  2.75002e-05
 Reference value :  2.75008e-05
 Reference value :  2.75013e-05
 Reference value :  2.75022e-05
 Reference value :  2.75033e-05
 Reference value :  2.75044e-05
 Reference value :  2.75056e-05
 Reference value :  2.75067e-05
 Reference value :  2.75097e-05
 Reference value :  2.75117e-05
 Reference value :  2.75137e-05
 Reference value :  2.75155e-05
 Reference value :  2.75175e-05
 Reference value :  2.75197e-05
 Reference value :  2.75231e-05
 Reference value :  2.75577e-05
 Reference value :  2.76244e-05
 Reference value :  2.77071e-05
 Reference value :  2.77501e-05
 Reference value :  2.77502e-05
 Reference value :  2.77503e-05
 Reference value :  2.77507e-05
 Reference value :  2.77514e-05
 Reference value :  2.77524e-05
 Reference value :  2.77538e-05
 Reference value :  2.77550e-05
 Reference value :  2.77576e-05
 Reference value :  2.77653e-05
 Reference value :  2.78042e-05
 Reference value :  2.80018e-05
 Reference value :  2.80071e-05
 Reference value :  2.80103e-05
 Reference value :  2.80134e-05
 Reference value :  2.80284e-05
 Reference value :  2.81320e-05
 Reference value :  2.82501e-05
 Reference value :  2.82502e-05
 Reference value :  2.82507e-05
 Reference value :  2.82514e-05
 Reference value :  2.82524e-05
 Reference value :  2.82542e-05
 Reference value :  2.82563e-05
 Reference value :  2.82581e-05
 Reference value :  2.82672e-05
 Reference value :  2.84350e-05
 Reference value :  2.85001e-05
 Reference value :  2.85003e-05
 Reference value :  2.85013e-05
 Reference value :  2.85027e-05
 Reference value :  2.85044e-05
 Reference value :  2.85056e-05
 Reference value :  2.85076e-05
 Reference value :  2.85107e-05
 Reference value :  2.85137e-05
 Reference value :  2.85164e-05
 Reference value :  2.85196e-05
 Reference value :  2.85403e-05
 Reference value :  2.85718e-05
 Reference value :  2.85867e-05
 Reference value :  2.86098e-05
 Reference value :  2.86435e-05
 Reference value :  2.87501e-05
 Reference value :  2.87502e-05
 Reference value :  2.87502e-05
 Reference value :  2.87504e-05
 Reference value :  2.87509e-05
 Reference value :  2.87514e-05
 Reference value :  2.87524e-05
 Reference value :  2.87538e-05
 Reference value :  2.87544e-05
 Reference value :  2.87557e-05
 Reference value :  2.87576e-05
 Reference value :  2.87654e-05
 Reference value :  2.88049e-05
 Reference value :  2.90000e-05
 Reference value :  2.90018e-05
 Reference value :  2.90053e-05
 Reference value :  2.90071e-05
 Reference value :  2.90103e-05
 Reference value :  2.90133e-05
 Reference value :  2.90215e-05
 Reference value :  2.90549e-05
 Reference value :  2.92080e-05
 Reference value :  2.92501e-05
 Reference value :  2.92502e-05
 Reference value :  2.92503e-05
 Reference value :  2.92509e-05
 Reference value :  2.92514e-05
 Reference value :  2.92524e-05
 Reference value :  2.92537e-05
 Reference value :  2.92548e-05
 Reference value :  2.92573e-05
 Reference value :  2.92799e-05
 Reference value :  2.94921e-05
 Reference value :  2.95001e-05
 Reference value :  2.95001e-05
 Reference value :  2.95005e-05
 Reference value :  2.95018e-05
 Reference value :  2.95027e-05
 Reference value :  2.95039e-05
 Reference value :  2.95050e-05
 Reference value :  2.95056e-05
 Reference value :  2.95067e-05
 Reference value :  2.95100e-05
 Reference value :  2.95128e-05
 Reference value :  2.95149e-05
 Reference value :  2.95171e-05
 Reference value :  2.95194e-05
 Reference value :  2.95261e-05
 Reference value :  2.95376e-05
 Reference value :  2.95509e-05
 Reference value :  2.95636e-05
 Reference value :  2.95729e-05
 Reference value :  2.95840e-05
 Reference value :  2.96145e-05
 Reference value :  2.97258e-05
 Reference value :  2.97501e-05
 Reference value :  2.97502e-05
 Reference value :  2.97503e-05
 Reference value :  2.97507e-05
 Reference value :  2.97514e-05
 Reference value :  2.97524e-05
 Reference value :  2.97537e-05
 Reference value :  2.97551e-05
 Reference value :  2.97567e-05
 Reference value :  2.97618e-05
 Reference value :  2.97846e-05
 Reference value :  2.99005e-05
 Reference value :  3.00000e-05
 Reference value :  3.00001e-05
 Reference value :  3.00002e-05
 Reference value :  3.00008e-05
 Reference value :  3.00018e-05
 Reference value :  3.00026e-05
 Reference value :  3.00039e-05
 Reference value :  3.00055e-05
 Reference value :  3.00073e-05
 Reference value :  3.00090e-05
 Reference value :  3.00112e-05
 Reference value :  3.00289e-05
 Reference value :  3.02501e-05
 Reference value :  3.02502e-05
 Reference value :  3.02502e-05
 Reference value :  3.02504e-05
 Reference value :  3.02514e-05
 Reference value :  3.02530e-05
 Reference value :  3.02544e-05
 Reference value :  3.02567e-05
 Reference value :  3.02584e-05
 Reference value :  3.02621e-05
 Reference value :  3.02874e-05
 Reference value :  3.05000e-05
 Reference value :  3.05012e-05
 Reference value :  3.05050e-05
 Reference value :  3.05072e-05
 Reference value :  3.05102e-05
 Reference value :  3.05122e-05
 Reference value :  3.05141e-05
 Reference value :  3.05158e-05
 Reference value :  3.05178e-05
 Reference value :  3.05216e-05
 Reference value :  3.05316e-05
 Reference value :  3.05458e-05
 Reference value :  3.05679e-05
 Reference value :  3.06014e-05
 Reference value :  3.06943e-05
 Reference value :  3.07501e-05
 Reference value :  3.07502e-05
 Reference value :  3.07503e-05
 Reference value :  3.07507e-05
 Reference value :  3.07514e-05
 Reference value :  3.07524e-05
 Reference value :  3.07537e-05
 Reference value :  3.07550e-05
 Reference value :  3.07575e-05
 Reference value :  3.07650e-05
 Reference value :  3.08378e-05
 Reference value :  3.10000e-05
 Reference value :  3.10001e-05
 Reference value :  3.10001e-05
 Reference value :  3.10002e-05
 Reference value :  3.10003e-05
 Reference value :  3.10008e-05
 Reference value :  3.10013e-05
 Reference value :  3.10022e-05
 Reference value :  3.10039e-05
 Reference value :  3.10055e-05
 Reference value :  3.10073e-05
 Reference value :  3.10090e-05
 Reference value :  3.10112e-05
 Reference value :  3.10196e-05
 Reference value :  3.10844e-05
 Reference value :  3.12501e-05
 Reference value :  3.12502e-05
 Reference value :  3.12503e-05
 Reference value :  3.12504e-05
 Reference value :  3.12509e-05
 Reference value :  3.12514e-05
 Reference value :  3.12524e-05
 Reference value :  3.12538e-05
 Reference value :  3.12550e-05
 Reference value :  3.12567e-05
 Reference value :  3.12584e-05
 Reference value :  3.12621e-05
 Reference value :  3.12873e-05
 Reference value :  3.15000e-05
 Reference value :  3.15001e-05
 Reference value :  3.15001e-05
 Reference value :  3.15003e-05
 Reference value :  3.15013e-05
 Reference value :  3.15022e-05
 Reference value :  3.15033e-05
 Reference value :  3.15044e-05
 Reference value :  3.15056e-05
 Reference value :  3.15067e-05
 Reference value :  3.15097e-05
 Reference value :  3.15117e-05
 Reference value :  3.15137e-05
 Reference value :  3.15165e-05
 Reference value :  3.15200e-05
 Reference value :  3.15276e-05
 Reference value :  3.15390e-05
 Reference value :  3.15635e-05
 Reference value :  3.15863e-05
 Reference value :  3.16203e-05
 Reference value :  3.17501e-05
 Reference value :  3.17502e-05
 Reference value :  3.17503e-05
 Reference value :  3.17507e-05
 Reference value :  3.17518e-05
 Reference value :  3.17538e-05
 Reference value :  3.17550e-05
 Reference value :  3.17576e-05
 Reference value :  3.17724e-05
 Reference value :  3.20000e-05
 Reference value :  3.20001e-05
 Reference value :  3.20002e-05
 Reference value :  3.20013e-05
 Reference value :  3.20022e-05
 Reference value :  3.20032e-05
 Reference value :  3.20044e-05
 Reference value :  3.20072e-05
 Reference value :  3.20093e-05
 Reference value :  3.20116e-05
 Reference value :  3.20285e-05
 Reference value :  3.22501e-05
 Reference value :  3.22502e-05
 Reference value :  3.22502e-05
 Reference value :  3.22503e-05
 Reference value :  3.22507e-05
 Reference value :  3.22514e-05
 Reference value :  3.22524e-05
 Reference value :  3.22538e-05
 Reference value :  3.22544e-05
 Reference value :  3.22558e-05
 Reference value :  3.22576e-05
 Reference value :  3.22655e-05
 Reference value :  3.23048e-05
 Reference value :  3.25000e-05
 Reference value :  3.25001e-05
 Reference value :  3.25001e-05
 Reference value :  3.25003e-05
 Reference value :  3.25013e-05
 Reference value :  3.25022e-05
 Reference value :  3.25033e-05
 Reference value :  3.25044e-05
 Reference value :  3.25056e-05
 Reference value :  3.25067e-05
 Reference value :  3.25100e-05
 Reference value :  3.25128e-05
 Reference value :  3.25149e-05
 Reference value :  3.25171e-05
 Reference value :  3.25227e-05
 Reference value :  3.25716e-05
 Reference value :  3.26726e-05
 Reference value :  3.27501e-05
 Reference value :  3.27502e-05
 Reference value :  3.27503e-05
 Reference value :  3.27509e-05
 Reference value :  3.27518e-05
 Reference value :  3.27537e-05
 Reference value :  3.27558e-05
 Reference value :  3.27594e-05
 Reference value :  3.27845e-05
 Reference value :  3.28649e-05
 Reference value :  3.30000e-05
 Reference value :  3.30001e-05
 Reference value :  3.30002e-05
 Reference value :  3.30005e-05
 Reference value :  3.30013e-05
 Reference value :  3.30022e-05
 Reference value :  3.30039e-05
 Reference value :  3.30055e-05
 Reference value :  3.30073e-05
 Reference value :  3.30090e-05
 Reference value :  3.30124e-05
 Reference value :  3.30475e-05
 Reference value :  3.32501e-05
 Reference value :  3.32502e-05
 Reference value :  3.32504e-05
 Reference value :  3.32514e-05
 Reference value :  3.32530e-05
 Reference value :  3.32544e-05
 Reference value :  3.32567e-05
 Reference value :  3.32593e-05
 Reference value :  3.32648e-05
 Reference value :  3.33073e-05
 Reference value :  3.35013e-05
 Reference value :  3.35051e-05
 Reference value :  3.35074e-05
 Reference value :  3.35093e-05
 Reference value :  3.35123e-05
 Reference value :  3.35175e-05
 Reference value :  3.35406e-05
 Reference value :  3.35589e-05
 Reference value :  3.35991e-05
 Reference value :  3.37501e-05
 Reference value :  3.37502e-05
 Reference value :  3.37503e-05
 Reference value :  3.37514e-05
 Reference value :  3.37530e-05
 Reference value :  3.37546e-05
 Reference value :  3.37577e-05
 Reference value :  3.37702e-05
 Reference value :  3.38705e-05
 Reference value :  3.40000e-05
 Reference value :  3.40001e-05
 Reference value :  3.40002e-05
 Reference value :  3.40006e-05
 Reference value :  3.40015e-05
 Reference value :  3.40026e-05
 Reference value :  3.40038e-05
 Reference value :  3.40053e-05
 Reference value :  3.40067e-05
 Reference value :  3.40107e-05
 Reference value :  3.40243e-05
 Reference value :  3.40284e-05
 Reference value :  3.40314e-05
 Reference value :  3.40367e-05
 Reference value :  3.40398e-05
 Reference value :  3.40453e-05
 Reference value :  3.40610e-05
 Reference value :  3.40745e-05
 Reference value :  3.40848e-05
 Reference value :  3.40961e-05
 Reference value :  3.41085e-05
 Reference value :  3.41449e-05
 Reference value :  3.42501e-05
 Reference value :  3.42502e-05
 Reference value :  3.42503e-05
 Reference value :  3.42507e-05
 Reference value :  3.42514e-05
 Reference value :  3.42537e-05
 Reference value :  3.42558e-05
 Reference value :  3.42594e-05
 Reference value :  3.42730e-05
 Reference value :  3.43387e-05
 Reference value :  3.45000e-05
 Reference value :  3.45001e-05
 Reference value :  3.45002e-05
 Reference value :  3.45005e-05
 Reference value :  3.45013e-05
 Reference value :  3.45022e-05
 Reference value :  3.45039e-05
 Reference value :  3.45047e-05
 Reference value :  3.45078e-05
 Reference value :  3.45104e-05
 Reference value :  3.45135e-05
 Reference value :  3.45173e-05
 Reference value :  3.45261e-05
 Reference value :  3.45848e-05
 Reference value :  3.47501e-05
 Reference value :  3.47502e-05
 Reference value :  3.47503e-05
 Reference value :  3.47509e-05
 Reference value :  3.47518e-05
 Reference value :  3.47530e-05
 Reference value :  3.47544e-05
 Reference value :  3.47567e-05
 Reference value :  3.47584e-05
 Reference value :  3.47621e-05
 Reference value :  3.47752e-05
 Reference value :  3.48488e-05
 Reference value :  3.50000e-05
 Reference value :  3.50001e-05
 Reference value :  3.50001e-05
 Reference value :  3.50002e-05
 Reference value :  3.50005e-05
 Reference value :  3.50013e-05
 Reference value :  3.50022e-05
 Reference value :  3.50033e-05
 Reference value :  3.50044e-05
 Reference value :  3.50056e-05
 Reference value :  3.50061e-05
 Reference value :  3.50084e-05
 Reference value :  3.50107e-05
 Reference value :  3.50128e-05
 Reference value :  3.50145e-05
 Reference value :  3.50165e-05
 Reference value :  3.50186e-05
 Reference value :  3.50232e-05
 Reference value :  3.50580e-05
 Reference value :  3.51989e-05
 Reference value :  3.52501e-05
 Reference value :  3.52502e-05
 Reference value :  3.52504e-05
 Reference value :  3.52514e-05
 Reference value :  3.52530e-05
 Reference value :  3.52544e-05
 Reference value :  3.52566e-05
 Reference value :  3.52614e-05
 Reference value :  3.52723e-05
 Reference value :  3.54044e-05
 Reference value :  3.55001e-05
 Reference value :  3.55002e-05
 Reference value :  3.55005e-05
 Reference value :  3.55018e-05
 Reference value :  3.55026e-05
 Reference value :  3.55039e-05
 Reference value :  3.55055e-05
 Reference value :  3.55073e-05
 Reference value :  3.55090e-05
 Reference value :  3.55148e-05
 Reference value :  3.56597e-05
 Reference value :  3.57502e-05
 Reference value :  3.57503e-05
 Reference value :  3.57509e-05
 Reference value :  3.57518e-05
 Reference value :  3.57538e-05
 Reference value :  3.57550e-05
 Reference value :  3.57576e-05
 Reference value :  3.57607e-05
 Reference value :  3.57874e-05
 Reference value :  3.60013e-05
 Reference value :  3.60052e-05
 Reference value :  3.60075e-05
 Reference value :  3.60105e-05
 Reference value :  3.60125e-05
 Reference value :  3.60144e-05
 Reference value :  3.60161e-05
 Reference value :  3.60194e-05
 Reference value :  3.60313e-05
 Reference value :  3.61246e-05
 Reference value :  3.62501e-05
 Reference value :  3.62502e-05
 Reference value :  3.62502e-05
 Reference value :  3.62504e-05
 Reference value :  3.62514e-05
 Reference value :  3.62530e-05
 Reference value :  3.62543e-05
 Reference value :  3.62566e-05
 Reference value :  3.62651e-05
 Reference value :  3.63983e-05
 Reference value :  3.65001e-05
 Reference value :  3.65002e-05
 Reference value :  3.65013e-05
 Reference value :  3.65022e-05
 Reference value :  3.65039e-05
 Reference value :  3.65066e-05
 Reference value :  3.65082e-05
 Reference value :  3.65100e-05
 Reference value :  3.65196e-05
 Reference value :  3.66569e-05
 Reference value :  3.67502e-05
 Reference value :  3.67502e-05
 Reference value :  3.67507e-05
 Reference value :  3.67514e-05
 Reference value :  3.67524e-05
 Reference value :  3.67544e-05
 Reference value :  3.67567e-05
 Reference value :  3.67584e-05
 Reference value :  3.67621e-05
 Reference value :  3.67874e-05
 Reference value :  3.69254e-05
 Reference value :  3.70000e-05
 Reference value :  3.70001e-05
 Reference value :  3.70002e-05
 Reference value :  3.70008e-05
 Reference value :  3.70018e-05
 Reference value :  3.70027e-05
 Reference value :  3.70039e-05
 Reference value :  3.70044e-05
 Reference value :  3.70056e-05
 Reference value :  3.70067e-05
 Reference value :  3.70084e-05
 Reference value :  3.70107e-05
 Reference value :  3.70128e-05
 Reference value :  3.70145e-05
 Reference value :  3.70164e-05
 Reference value :  3.70185e-05
 Reference value :  3.70213e-05
 Reference value :  3.70320e-05
 Reference value :  3.70612e-05
 Reference value :  3.70712e-05
 Reference value :  3.70838e-05
 Reference value :  3.71009e-05
 Reference value :  3.71297e-05
 Reference value :  3.72349e-05
 Reference value :  3.72501e-05
 Reference value :  3.72502e-05
 Reference value :  3.72504e-05
 Reference value :  3.72514e-05
 Reference value :  3.72530e-05
 Reference value :  3.72544e-05
 Reference value :  3.72557e-05
 Reference value :  3.72592e-05
 Reference value :  3.72724e-05
 Reference value :  3.74069e-05
 Reference value :  3.75000e-05
 Reference value :  3.75001e-05
 Reference value :  3.75003e-05
 Reference value :  3.75013e-05
 Reference value :  3.75022e-05
 Reference value :  3.75032e-05
 Reference value :  3.75044e-05
 Reference value :  3.75062e-05
 Reference value :  3.75082e-05
 Reference value :  3.75104e-05
 Reference value :  3.75129e-05
 Reference value :  3.75285e-05
 Reference value :  3.76425e-05
 Reference value :  3.77501e-05
 Reference value :  3.77502e-05
 Reference value :  3.77503e-05
 Reference value :  3.77504e-05
 Reference value :  3.77509e-05
 Reference value :  3.77514e-05
 Reference value :  3.77524e-05
 Reference value :  3.77538e-05
 Reference value :  3.77544e-05
 Reference value :  3.77558e-05
 Reference value :  3.77576e-05
 Reference value :  3.77655e-05
 Reference value :  3.78049e-05
 Reference value :  3.80000e-05
 Reference value :  3.80000e-05
 Reference value :  3.80001e-05
 Reference value :  3.80002e-05
 Reference value :  3.80003e-05
 Reference value :  3.80013e-05
 Reference value :  3.80022e-05
 Reference value :  3.80033e-05
 Reference value :  3.80044e-05
 Reference value :  3.80056e-05
 Reference value :  3.80061e-05
 Reference value :  3.80084e-05
 Reference value :  3.80114e-05
 Reference value :  3.80128e-05
 Reference value :  3.80149e-05
 Reference value :  3.80171e-05
 Reference value :  3.80194e-05
 Reference value :  3.80261e-05
 Reference value :  3.80374e-05
 Reference value :  3.80514e-05
 Reference value :  3.80653e-05
 Reference value :  3.80762e-05
 Reference value :  3.81089e-05
 Reference value :  3.82395e-05
 Reference value :  3.82501e-05
 Reference value :  3.82502e-05
 Reference value :  3.82503e-05
 Reference value :  3.82509e-05
 Reference value :  3.82514e-05
 Reference value :  3.82524e-05
 Reference value :  3.82537e-05
 Reference value :  3.82551e-05
 Reference value :  3.82579e-05
 Reference value :  3.82660e-05
 Reference value :  3.83045e-05
 Reference value :  3.85000e-05
 Reference value :  3.85018e-05
 Reference value :  3.85055e-05
 Reference value :  3.85074e-05
 Reference value :  3.85108e-05
 Reference value :  3.85145e-05
 Reference value :  3.85244e-05
 Reference value :  3.85599e-05
 Reference value :  3.87501e-05
 Reference value :  3.87501e-05
 Reference value :  3.87502e-05
 Reference value :  3.87503e-05
 Reference value :  3.87507e-05
 Reference value :  3.87514e-05
 Reference value :  3.87524e-05
 Reference value :  3.87537e-05
 Reference value :  3.87548e-05
 Reference value :  3.87562e-05
 Reference value :  3.87580e-05
 Reference value :  3.87602e-05
 Reference value :  3.87673e-05
 Reference value :  3.87998e-05
 Reference value :  3.89555e-05
 Reference value :  3.90000e-05
 Reference value :  3.90001e-05
 Reference value :  3.90002e-05
 Reference value :  3.90005e-05
 Reference value :  3.90013e-05
 Reference value :  3.90022e-05
 Reference value :  3.90033e-05
 Reference value :  3.90044e-05
 Reference value :  3.90056e-05
 Reference value :  3.90061e-05
 Reference value :  3.90076e-05
 Reference value :  3.90097e-05
 Reference value :  3.90107e-05
 Reference value :  3.90118e-05
 Reference value :  3.90137e-05
 Reference value :  3.90156e-05
 Reference value :  3.90176e-05
 Reference value :  3.90200e-05
 Reference value :  3.90278e-05
 Reference value :  3.90390e-05
 Reference value :  3.90449e-05
 Reference value :  3.90632e-05
 Reference value :  3.91136e-05
 Reference value :  3.91382e-05
 Reference value :  3.91612e-05
 Reference value :  3.92370e-05
 Reference value :  3.92501e-05
 Reference value :  3.92502e-05
 Reference value :  3.92503e-05
 Reference value :  3.92507e-05
 Reference value :  3.92514e-05
 Reference value :  3.92524e-05
 Reference value :  3.92538e-05
 Reference value :  3.92550e-05
 Reference value :  3.92566e-05
 Reference value :  3.92591e-05
 Reference value :  3.92723e-05
 Reference value :  3.93390e-05
 Reference value :  3.95000e-05
 Reference value :  3.95001e-05
 Reference value :  3.95002e-05
 Reference value :  3.95013e-05
 Reference value :  3.95022e-05
 Reference value :  3.95039e-05
 Reference value :  3.95055e-05
 Reference value :  3.95073e-05
 Reference value :  3.95090e-05
 Reference value :  3.95124e-05
 Reference value :  3.95477e-05
 Reference value :  3.97501e-05
 Reference value :  3.97502e-05
 Reference value :  3.97503e-05
 Reference value :  3.97509e-05
 Reference value :  3.97514e-05
 Reference value :  3.97524e-05
 Reference value :  3.97538e-05
 Reference value :  3.97550e-05
 Reference value :  3.97567e-05
 Reference value :  3.97584e-05
 Reference value :  3.97621e-05
 Reference value :  3.97752e-05
 Reference value :  3.98476e-05
 Reference value :  4.00000e-05
 Reference value :  4.00001e-05
 Reference value :  4.00001e-05
 Reference value :  4.00002e-05
 Reference value :  4.00005e-05
 Reference value :  4.00013e-05
 Reference value :  4.00022e-05
 Reference value :  4.00033e-05
 Reference value :  4.00044e-05
 Reference value :  4.00056e-05
 Reference value :  4.00061e-05
 Reference value :  4.00076e-05
 Reference value :  4.00097e-05
 Reference value :  4.00107e-05
 Reference value :  4.00129e-05
 Reference value :  4.00137e-05
 Reference value :  4.00155e-05
 Reference value :  4.00176e-05
 Reference value :  4.00199e-05
 Reference value :  4.00218e-05
 Reference value :  4.00269e-05
 Reference value :  4.00302e-05
 Reference value :  4.00340e-05
 Reference value :  4.00371e-05
 Reference value :  4.00440e-05
 Reference value :  4.00556e-05
 Reference value :  4.00964e-05
 Reference value :  4.02501e-05
 Reference value :  4.02501e-05
 Reference value :  4.02502e-05
 Reference value :  4.02503e-05
 Reference value :  4.02504e-05
 Reference value :  4.02509e-05
 Reference value :  4.02514e-05
 Reference value :  4.02524e-05
 Reference value :  4.02530e-05
 Reference value :  4.02544e-05
 Reference value :  4.02557e-05
 Reference value :  4.02576e-05
 Reference value :  4.02614e-05
 Reference value :  4.02839e-05
 Reference value :  4.03403e-05
 Reference value :  4.05000e-05
 Reference value :  4.05001e-05
 Reference value :  4.05001e-05
 Reference value :  4.05002e-05
 Reference value :  4.05003e-05
 Reference value :  4.05008e-05
 Reference value :  4.05013e-05
 Reference value :  4.05022e-05
 Reference value :  4.05032e-05
 Reference value :  4.05044e-05
 Reference value :  4.05062e-05
 Reference value :  4.05082e-05
 Reference value :  4.05104e-05
 Reference value :  4.05129e-05
 Reference value :  4.05448e-05
 Reference value :  4.07501e-05
 Reference value :  4.07502e-05
 Reference value :  4.07503e-05
 Reference value :  4.07507e-05
 Reference value :  4.07514e-05
 Reference value :  4.07524e-05
 Reference value :  4.07538e-05
 Reference value :  4.07551e-05
 Reference value :  4.07576e-05
 Reference value :  4.07655e-05
 Reference value :  4.08048e-05
 Reference value :  4.10015e-05
 Reference value :  4.10045e-05
 Reference value :  4.10061e-05
 Reference value :  4.10092e-05
 Reference value :  4.10106e-05
 Reference value :  4.10120e-05
 Reference value :  4.10145e-05
 Reference value :  4.10179e-05
 Reference value :  4.10228e-05
 Reference value :  4.10464e-05
 Reference value :  4.12474e-05
 Reference value :  4.12502e-05
 Reference value :  4.12503e-05
 Reference value :  4.12504e-05
 Reference value :  4.12514e-05
 Reference value :  4.12530e-05
 Reference value :  4.12544e-05
 Reference value :  4.12567e-05
 Reference value :  4.12615e-05
 Reference value :  4.13049e-05
 Reference value :  4.15000e-05
 Reference value :  4.15001e-05
 Reference value :  4.15002e-05
 Reference value :  4.15003e-05
 Reference value :  4.15008e-05
 Reference value :  4.15013e-05
 Reference value :  4.15022e-05
 Reference value :  4.15032e-05
 Reference value :  4.15044e-05
 Reference value :  4.15062e-05
 Reference value :  4.15082e-05
 Reference value :  4.15104e-05
 Reference value :  4.15129e-05
 Reference value :  4.15286e-05
 Reference value :  4.16439e-05
 Reference value :  4.17501e-05
 Reference value :  4.17502e-05
 Reference value :  4.17502e-05
 Reference value :  4.17503e-05
 Reference value :  4.17504e-05
 Reference value :  4.17509e-05
 Reference value :  4.17514e-05
 Reference value :  4.17524e-05
 Reference value :  4.17538e-05
 Reference value :  4.17550e-05
 Reference value :  4.17567e-05
 Reference value :  4.17614e-05
 Reference value :  4.17838e-05
 Reference value :  4.19050e-05
 Reference value :  4.20000e-05
 Reference value :  4.20001e-05
 Reference value :  4.20002e-05
 Reference value :  4.20005e-05
 Reference value :  4.20013e-05
 Reference value :  4.20022e-05
 Reference value :  4.20033e-05
 Reference value :  4.20044e-05
 Reference value :  4.20056e-05
 Reference value :  4.20061e-05
 Reference value :  4.20076e-05
 Reference value :  4.20093e-05
 Reference value :  4.20114e-05
 Reference value :  4.20267e-05
 Reference value :  4.21493e-05
 Reference value :  4.22501e-05
 Reference value :  4.22502e-05
 Reference value :  4.22503e-05
 Reference value :  4.22504e-05
 Reference value :  4.22510e-05
 Reference value :  4.22514e-05
 Reference value :  4.22524e-05
 Reference value :  4.22539e-05
 Reference value :  4.22566e-05
 Reference value :  4.22618e-05
 Reference value :  4.23256e-05
 Reference value :  4.25000e-05
 Reference value :  4.25001e-05
 Reference value :  4.25006e-05
 Reference value :  4.25015e-05
 Reference value :  4.25026e-05
 Reference value :  4.25038e-05
 Reference value :  4.25060e-05
 Reference value :  4.25088e-05
 Reference value :  4.25243e-05
 Reference value :  4.25284e-05
 Reference value :  4.25315e-05
 Reference value :  4.25367e-05
 Reference value :  4.25399e-05
 Reference value :  4.25429e-05
 Reference value :  4.25518e-05
 Reference value :  4.25780e-05
 Reference value :  4.25893e-05
 Reference value :  4.26015e-05
 Reference value :  4.26110e-05
 Reference value :  4.26515e-05
 Reference value :  4.27501e-05
 Reference value :  4.27502e-05
 Reference value :  4.27503e-05
 Reference value :  4.27509e-05
 Reference value :  4.27519e-05
 Reference value :  4.27537e-05
 Reference value :  4.27558e-05
 Reference value :  4.27594e-05
 Reference value :  4.27729e-05
 Reference value :  4.29009e-05
 Reference value :  4.30000e-05
 Reference value :  4.30001e-05
 Reference value :  4.30002e-05
 Reference value :  4.30008e-05
 Reference value :  4.30018e-05
 Reference value :  4.30026e-05
 Reference value :  4.30039e-05
 Reference value :  4.30055e-05
 Reference value :  4.30078e-05
 Reference value :  4.30104e-05
 Reference value :  4.30135e-05
 Reference value :  4.30173e-05
 Reference value :  4.30261e-05
 Reference value :  4.30848e-05
 Reference value :  4.32501e-05
 Reference value :  4.32502e-05
 Reference value :  4.32503e-05
 Reference value :  4.32507e-05
 Reference value :  4.32514e-05
 Reference value :  4.32530e-05
 Reference value :  4.32544e-05
 Reference value :  4.32567e-05
 Reference value :  4.32584e-05
 Reference value :  4.32621e-05
 Reference value :  4.32875e-05
 Reference value :  4.35000e-05
 Reference value :  4.35013e-05
 Reference value :  4.35051e-05
 Reference value :  4.35073e-05
 Reference value :  4.35103e-05
 Reference value :  4.35122e-05
 Reference value :  4.35140e-05
 Reference value :  4.35157e-05
 Reference value :  4.35177e-05
 Reference value :  4.35198e-05
 Reference value :  4.35230e-05
 Reference value :  4.35385e-05
 Reference value :  4.36091e-05
 Reference value :  4.37422e-05
 Reference value :  4.37501e-05
 Reference value :  4.37502e-05
 Reference value :  4.37503e-05
 Reference value :  4.37504e-05
 Reference value :  4.37509e-05
 Reference value :  4.37514e-05
 Reference value :  4.37524e-05
 Reference value :  4.37537e-05
 Reference value :  4.37543e-05
 Reference value :  4.37556e-05
 Reference value :  4.37575e-05
 Reference value :  4.37650e-05
 Reference value :  4.38034e-05
 Reference value :  4.40000e-05
 Reference value :  4.40001e-05
 Reference value :  4.40001e-05
 Reference value :  4.40003e-05
 Reference value :  4.40008e-05
 Reference value :  4.40018e-05
 Reference value :  4.40022e-05
 Reference value :  4.40033e-05
 Reference value :  4.40039e-05
 Reference value :  4.40055e-05
 Reference value :  4.40073e-05
 Reference value :  4.40090e-05
 Reference value :  4.40112e-05
 Reference value :  4.40196e-05
 Reference value :  4.40845e-05
 Reference value :  4.42501e-05
 Reference value :  4.42502e-05
 Reference value :  4.42503e-05
 Reference value :  4.42509e-05
 Reference value :  4.42514e-05
 Reference value :  4.42524e-05
 Reference value :  4.42538e-05
 Reference value :  4.42550e-05
 Reference value :  4.42567e-05
 Reference value :  4.42584e-05
 Reference value :  4.42607e-05
 Reference value :  4.42683e-05
 Reference value :  4.43078e-05
 Reference value :  4.45000e-05
 Reference value :  4.45000e-05
 Reference value :  4.45001e-05
 Reference value :  4.45001e-05
 Reference value :  4.45002e-05
 Reference value :  4.45005e-05
 Reference value :  4.45013e-05
 Reference value :  4.45022e-05
 Reference value :  4.45033e-05
 Reference value :  4.45044e-05
 Reference value :  4.45056e-05
 Reference value :  4.45067e-05
 Reference value :  4.45097e-05
 Reference value :  4.45107e-05
 Reference value :  4.45128e-05
 Reference value :  4.45145e-05
 Reference value :  4.45165e-05
 Reference value :  4.45185e-05
 Reference value :  4.45213e-05
 Reference value :  4.45413e-05
 Reference value :  4.46244e-05
 Reference value :  4.47037e-05
 Reference value :  4.47501e-05
 Reference value :  4.47502e-05
 Reference value :  4.47502e-05
 Reference value :  4.47507e-05
 Reference value :  4.47514e-05
 Reference value :  4.47530e-05
 Reference value :  4.47544e-05
 Reference value :  4.47566e-05
 Reference value :  4.47653e-05
 Reference value :  4.48042e-05
 Reference value :  4.50000e-05
 Reference value :  4.50001e-05
 Reference value :  4.50001e-05
 Reference value :  4.50003e-05
 Reference value :  4.50013e-05
 Reference value :  4.50022e-05
 Reference value :  4.50039e-05
 Reference value :  4.50055e-05
 Reference value :  4.50073e-05
 Reference value :  4.50090e-05
 Reference value :  4.50124e-05
 Reference value :  4.50476e-05
 Reference value :  4.52501e-05
 Reference value :  4.52502e-05
 Reference value :  4.52502e-05
 Reference value :  4.52504e-05
 Reference value :  4.52509e-05
 Reference value :  4.52514e-05
 Reference value :  4.52524e-05
 Reference value :  4.52538e-05
 Reference value :  4.52550e-05
 Reference value :  4.52567e-05
 Reference value :  4.52584e-05
 Reference value :  4.52607e-05
 Reference value :  4.52683e-05
 Reference value :  4.53482e-05
 Reference value :  4.55000e-05
 Reference value :  4.55001e-05
 Reference value :  4.55001e-05
 Reference value :  4.55002e-05
 Reference value :  4.55008e-05
 Reference value :  4.55018e-05
 Reference value :  4.55027e-05
 Reference value :  4.55039e-05
 Reference value :  4.55050e-05
 Reference value :  4.55056e-05
 Reference value :  4.55067e-05
 Reference value :  4.55097e-05
 Reference value :  4.55107e-05
 Reference value :  4.55128e-05
 Reference value :  4.55145e-05
 Reference value :  4.55164e-05
 Reference value :  4.55185e-05
 Reference value :  4.55231e-05
 Reference value :  4.55409e-05
 Reference value :  4.55624e-05
 Reference value :  4.55777e-05
 Reference value :  4.55880e-05
 Reference value :  4.56039e-05
 Reference value :  4.56375e-05
 Reference value :  4.57248e-05
 Reference value :  4.57501e-05
 Reference value :  4.57502e-05
 Reference value :  4.57503e-05
 Reference value :  4.57507e-05
 Reference value :  4.57514e-05
 Reference value :  4.57524e-05
 Reference value :  4.57538e-05
 Reference value :  4.57550e-05
 Reference value :  4.57567e-05
 Reference value :  4.57592e-05
 Reference value :  4.57839e-05
 Reference value :  4.59069e-05
 Reference value :  4.60018e-05
 Reference value :  4.60053e-05
 Reference value :  4.60071e-05
 Reference value :  4.60103e-05
 Reference value :  4.60150e-05
 Reference value :  4.60548e-05
 Reference value :  4.62501e-05
 Reference value :  4.62502e-05
 Reference value :  4.62503e-05
 Reference value :  4.62514e-05
 Reference value :  4.62530e-05
 Reference value :  4.62548e-05
 Reference value :  4.62586e-05
 Reference value :  4.62974e-05
 Reference value :  4.65000e-05
 Reference value :  4.65001e-05
 Reference value :  4.65002e-05
 Reference value :  4.65008e-05
 Reference value :  4.65018e-05
 Reference value :  4.65027e-05
 Reference value :  4.65039e-05
 Reference value :  4.65050e-05
 Reference value :  4.65056e-05
 Reference value :  4.65067e-05
 Reference value :  4.65100e-05
 Reference value :  4.65128e-05
 Reference value :  4.65149e-05
 Reference value :  4.65171e-05
 Reference value :  4.65211e-05
 Reference value :  4.65316e-05
 Reference value :  4.65454e-05
 Reference value :  4.65635e-05
 Reference value :  4.65764e-05
 Reference value :  4.65890e-05
 Reference value :  4.66194e-05
 Reference value :  4.67501e-05
 Reference value :  4.67502e-05
 Reference value :  4.67502e-05
 Reference value :  4.67504e-05
 Reference value :  4.67514e-05
 Reference value :  4.67524e-05
 Reference value :  4.67537e-05
 Reference value :  4.67551e-05
 Reference value :  4.67579e-05
 Reference value :  4.67729e-05
 Reference value :  4.69007e-05
 Reference value :  4.70001e-05
 Reference value :  4.70001e-05
 Reference value :  4.70005e-05
 Reference value :  4.70013e-05
 Reference value :  4.70022e-05
 Reference value :  4.70039e-05
 Reference value :  4.70055e-05
 Reference value :  4.70073e-05
 Reference value :  4.70090e-05
 Reference value :  4.70124e-05
 Reference value :  4.70289e-05
 Reference value :  4.71598e-05
 Reference value :  4.72501e-05
 Reference value :  4.72502e-05
 Reference value :  4.72503e-05
 Reference value :  4.72509e-05
 Reference value :  4.72518e-05
 Reference value :  4.72538e-05
 Reference value :  4.72550e-05
 Reference value :  4.72567e-05
 Reference value :  4.72584e-05
 Reference value :  4.72607e-05
 Reference value :  4.72752e-05
 Reference value :  4.74252e-05
 Reference value :  4.75000e-05
 Reference value :  4.75001e-05
 Reference value :  4.75002e-05
 Reference value :  4.75008e-05
 Reference value :  4.75018e-05
 Reference value :  4.75027e-05
 Reference value :  4.75033e-05
 Reference value :  4.75044e-05
 Reference value :  4.75056e-05
 Reference value :  4.75061e-05
 Reference value :  4.75084e-05
 Reference value :  4.75107e-05
 Reference value :  4.75129e-05
 Reference value :  4.75145e-05
 Reference value :  4.75176e-05
 Reference value :  4.75220e-05
 Reference value :  4.75277e-05
 Reference value :  4.75318e-05
 Reference value :  4.75406e-05
 Reference value :  4.75500e-05
 Reference value :  4.75534e-05
 Reference value :  4.75612e-05
 Reference value :  4.75846e-05
 Reference value :  4.76421e-05
 Reference value :  4.77501e-05
 Reference value :  4.77502e-05
 Reference value :  4.77503e-05
 Reference value :  4.77507e-05
 Reference value :  4.77514e-05
 Reference value :  4.77524e-05
 Reference value :  4.77538e-05
 Reference value :  4.77550e-05
 Reference value :  4.77566e-05
 Reference value :  4.77614e-05
 Reference value :  4.77839e-05
 Reference value :  4.78773e-05
 Reference value :  4.79038e-05
[...]
 Reference value :  2.60000e-04
 Reference value :  2.60000e-04
 Reference value :  2.60001e-04
 Reference value :  2.60002e-04
 Reference value :  2.60004e-04
 Reference value :  2.60005e-04
 Reference value :  2.60006e-04
 Reference value :  2.60008e-04
 Reference value :  2.60013e-04
 Reference value :  2.60015e-04
 Reference value :  2.60017e-04
 Reference value :  2.60021e-04
 Reference value :  2.60037e-04
 Reference value :  2.60043e-04
 Reference value :  2.60055e-04
 Reference value :  2.60065e-04
 Reference value :  2.60093e-04
 Reference value :  2.60191e-04
 Reference value :  2.60250e-04
 Reference value :  2.60250e-04
 Reference value :  2.60250e-04
 Reference value :  2.60251e-04
 Reference value :  2.60252e-04
 Reference value :  2.60253e-04
 Reference value :  2.60254e-04
 Reference value :  2.60257e-04
 Reference value :  2.60262e-04
 Reference value :  2.60285e-04
 Reference value :  2.60500e-04
 Reference value :  2.60500e-04
 Reference value :  2.60500e-04
 Reference value :  2.60500e-04
 Reference value :  2.60501e-04
 Reference value :  2.60502e-04
 Reference value :  2.60504e-04
 Reference value :  2.60506e-04
 Reference value :  2.60507e-04
 Reference value :  2.60509e-04
 Reference value :  2.60512e-04
 Reference value :  2.60585e-04
 Reference value :  2.60750e-04
 Reference value :  2.60750e-04
 Reference value :  2.60751e-04
 Reference value :  2.60751e-04
 Reference value :  2.60753e-04
 Reference value :  2.60754e-04
 Reference value :  2.60757e-04
 Reference value :  2.60758e-04
 Reference value :  2.60765e-04
 Reference value :  2.60787e-04
 Reference value :  2.61000e-04
 Reference value :  2.61000e-04
 Reference value :  2.61000e-04
 Reference value :  2.61000e-04
 Reference value :  2.61001e-04
 Reference value :  2.61002e-04
 Reference value :  2.61003e-04
 Reference value :  2.61004e-04
 Reference value :  2.61006e-04
 Reference value :  2.61007e-04
 Reference value :  2.61010e-04
 Reference value :  2.61011e-04
 Reference value :  2.61013e-04
 Reference value :  2.61014e-04
 Reference value :  2.61017e-04
 Reference value :  2.61019e-04
 Reference value :  2.61024e-04
 Reference value :  2.61045e-04
 Reference value :  2.61158e-04
 Reference value :  2.61250e-04
 Reference value :  2.61250e-04
 Reference value :  2.61250e-04
 Reference value :  2.61251e-04
 Reference value :  2.61253e-04
 Reference value :  2.61254e-04
 Reference value :  2.61257e-04
 Reference value :  2.61259e-04
 Reference value :  2.61284e-04
 Reference value :  2.61500e-04
 Reference value :  2.61500e-04
 Reference value :  2.61500e-04
 Reference value :  2.61500e-04
 Reference value :  2.61501e-04
 Reference value :  2.61502e-04
 Reference value :  2.61504e-04
 Reference value :  2.61506e-04
 Reference value :  2.61507e-04
 Reference value :  2.61509e-04
 Reference value :  2.61512e-04
 Reference value :  2.61548e-04
 Reference value :  2.61750e-04
 Reference value :  2.61750e-04
 Reference value :  2.61750e-04
 Reference value :  2.61751e-04
 Reference value :  2.61753e-04
 Reference value :  2.61754e-04
 Reference value :  2.61757e-04
 Reference value :  2.61759e-04
 Reference value :  2.61768e-04
 Reference value :  2.61847e-04
 Reference value :  2.62000e-04
 Reference value :  2.62000e-04
 Reference value :  2.62000e-04
 Reference value :  2.62001e-04
 Reference value :  2.62002e-04
 Reference value :  2.62003e-04
 Reference value :  2.62004e-04
 Reference value :  2.62006e-04
 Reference value :  2.62007e-04
 Reference value :  2.62010e-04
 Reference value :  2.62012e-04
 Reference value :  2.62014e-04
 Reference value :  2.62017e-04
 Reference value :  2.62020e-04
 Reference value :  2.62032e-04
 Reference value :  2.62078e-04
 Reference value :  2.62102e-04
 Reference value :  2.62135e-04
 Reference value :  2.62157e-04
 Reference value :  2.62235e-04
 Reference value :  2.62250e-04
 Reference value :  2.62250e-04
 Reference value :  2.62251e-04
 Reference value :  2.62252e-04
 Reference value :  2.62253e-04
 Reference value :  2.62254e-04
 Reference value :  2.62257e-04
 Reference value :  2.62265e-04
 Reference value :  2.62340e-04
 Reference value :  2.62500e-04
 Reference value :  2.62500e-04
 Reference value :  2.62500e-04
 Reference value :  2.62501e-04
 Reference value :  2.62502e-04
 Reference value :  2.62503e-04
 Reference value :  2.62504e-04
 Reference value :  2.62507e-04
 Reference value :  2.62509e-04
 Reference value :  2.62512e-04
 Reference value :  2.62528e-04
 Reference value :  2.62642e-04
 Reference value :  2.62750e-04
 Reference value :  2.62750e-04
 Reference value :  2.62750e-04
 Reference value :  2.62751e-04
 Reference value :  2.62751e-04
 Reference value :  2.62752e-04
 Reference value :  2.62754e-04
 Reference value :  2.62755e-04
 Reference value :  2.62757e-04
 Reference value :  2.62765e-04
 Reference value :  2.62840e-04
 Reference value :  2.63000e-04
 Reference value :  2.63000e-04
 Reference value :  2.63000e-04
 Reference value :  2.63001e-04
 Reference value :  2.63002e-04
 Reference value :  2.63003e-04
 Reference value :  2.63004e-04
 Reference value :  2.63006e-04
 Reference value :  2.63007e-04
 Reference value :  2.63008e-04
 Reference value :  2.63010e-04
 Reference value :  2.63027e-04
 Reference value :  2.63250e-04
 Reference value :  2.63250e-04
 Reference value :  2.63250e-04
 Reference value :  2.63250e-04
 Reference value :  2.63251e-04
 Reference value :  2.63253e-04
 Reference value :  2.63255e-04
 Reference value :  2.63259e-04
 Reference value :  2.63281e-04
 Reference value :  2.63384e-04
 Reference value :  2.63500e-04
 Reference value :  2.63500e-04
 Reference value :  2.63500e-04
 Reference value :  2.63500e-04
 Reference value :  2.63501e-04
 Reference value :  2.63502e-04
 Reference value :  2.63503e-04
 Reference value :  2.63504e-04
 Reference value :  2.63505e-04
 Reference value :  2.63506e-04
 Reference value :  2.63509e-04
 Reference value :  2.63519e-04
 Reference value :  2.63524e-04
 Reference value :  2.63528e-04
 Reference value :  2.63531e-04
 Reference value :  2.63537e-04
 Reference value :  2.63540e-04
 Reference value :  2.63542e-04
 Reference value :  2.63550e-04
 Reference value :  2.63562e-04
 Reference value :  2.63584e-04
 Reference value :  2.63630e-04
 Reference value :  2.63700e-04
 Reference value :  2.63718e-04
 Reference value :  2.63731e-04
 Reference value :  2.63737e-04
 Reference value :  2.63750e-04
 Reference value :  2.63750e-04
 Reference value :  2.63750e-04
 Reference value :  2.63750e-04
 Reference value :  2.63751e-04
 Reference value :  2.63753e-04
 Reference value :  2.63754e-04
 Reference value :  2.63756e-04
 Reference value :  2.63759e-04
 Reference value :  2.63773e-04
 Reference value :  2.63902e-04
 Reference value :  2.64000e-04
 Reference value :  2.64000e-04
 Reference value :  2.64000e-04
 Reference value :  2.64002e-04
 Reference value :  2.64003e-04
 Reference value :  2.64005e-04
 Reference value :  2.64008e-04
 Reference value :  2.64010e-04
 Reference value :  2.64015e-04
 Reference value :  2.64033e-04
 Reference value :  2.64250e-04
 Reference value :  2.64250e-04
 Reference value :  2.64250e-04
 Reference value :  2.64251e-04
 Reference value :  2.64254e-04
 Reference value :  2.64256e-04
 Reference value :  2.64258e-04
 Reference value :  2.64268e-04
 Reference value :  2.64426e-04
 Reference value :  2.64500e-04
 Reference value :  2.64500e-04
 Reference value :  2.64501e-04
 Reference value :  2.64502e-04
 Reference value :  2.64504e-04
 Reference value :  2.64505e-04
 Reference value :  2.64506e-04
 Reference value :  2.64508e-04
 Reference value :  2.64511e-04
 Reference value :  2.64513e-04
 Reference value :  2.64515e-04
 Reference value :  2.64516e-04
 Reference value :  2.64519e-04
 Reference value :  2.64523e-04
 Reference value :  2.64558e-04
 Reference value :  2.64699e-04
 Reference value :  2.64750e-04
 Reference value :  2.64750e-04
 Reference value :  2.64750e-04
 Reference value :  2.64751e-04
 Reference value :  2.64753e-04
 Reference value :  2.64754e-04
 Reference value :  2.64757e-04
 Reference value :  2.64761e-04
 Reference value :  2.64784e-04
 Reference value :  2.64879e-04
 Reference value :  2.65000e-04
 Reference value :  2.65000e-04
 Reference value :  2.65000e-04
 Reference value :  2.65001e-04
 Reference value :  2.65002e-04
 Reference value :  2.65003e-04
 Reference value :  2.65004e-04
 Reference value :  2.65006e-04
 Reference value :  2.65007e-04
 Reference value :  2.65009e-04
 Reference value :  2.65011e-04
 Reference value :  2.65020e-04
 Reference value :  2.65085e-04
 Reference value :  2.65250e-04
 Reference value :  2.65250e-04
 Reference value :  2.65250e-04
 Reference value :  2.65250e-04
 Reference value :  2.65251e-04
 Reference value :  2.65251e-04
 Reference value :  2.65252e-04
 Reference value :  2.65254e-04
 Reference value :  2.65254e-04
 Reference value :  2.65256e-04
 Reference value :  2.65258e-04
 Reference value :  2.65259e-04
 Reference value :  2.65265e-04
 Reference value :  2.65287e-04
 Reference value :  2.65424e-04
 Reference value :  2.65500e-04
 Reference value :  2.65500e-04
 Reference value :  2.65500e-04
 Reference value :  2.65500e-04
 Reference value :  2.65501e-04
 Reference value :  2.65502e-04
 Reference value :  2.65503e-04
 Reference value :  2.65504e-04
 Reference value :  2.65506e-04
 Reference value :  2.65506e-04
 Reference value :  2.65508e-04
 Reference value :  2.65510e-04
 Reference value :  2.65511e-04
 Reference value :  2.65513e-04
 Reference value :  2.65515e-04
 Reference value :  2.65515e-04
 Reference value :  2.65517e-04
 Reference value :  2.65520e-04
 Reference value :  2.65523e-04
 Reference value :  2.65532e-04
 Reference value :  2.65574e-04
 Reference value :  2.65591e-04
 Reference value :  2.65608e-04
 Reference value :  2.65618e-04
 Reference value :  2.65648e-04
 Reference value :  2.65689e-04
 Reference value :  2.65750e-04
 Reference value :  2.65750e-04
 Reference value :  2.65750e-04
 Reference value :  2.65750e-04
 Reference value :  2.65750e-04
 Reference value :  2.65751e-04
 Reference value :  2.65751e-04
 Reference value :  2.65752e-04
 Reference value :  2.65754e-04
 Reference value :  2.65754e-04
 Reference value :  2.65756e-04
 Reference value :  2.65758e-04
 Reference value :  2.65765e-04
 Reference value :  2.65805e-04
 Reference value :  2.66000e-04
 Reference value :  2.66000e-04
 Reference value :  2.66000e-04
 Reference value :  2.66000e-04
 Reference value :  2.66000e-04
 Reference value :  2.66000e-04
 Reference value :  2.66001e-04
 Reference value :  2.66002e-04
 Reference value :  2.66003e-04
 Reference value :  2.66004e-04
 Reference value :  2.66007e-04
 Reference value :  2.66010e-04
 Reference value :  2.66020e-04
 Reference value :  2.66250e-04
 Reference value :  2.66250e-04
 Reference value :  2.66251e-04
 Reference value :  2.66251e-04
 Reference value :  2.66253e-04
 Reference value :  2.66254e-04
 Reference value :  2.66257e-04
 Reference value :  2.66273e-04
 Reference value :  2.66405e-04
 Reference value :  2.66500e-04
 Reference value :  2.66500e-04
 Reference value :  2.66501e-04
 Reference value :  2.66502e-04
 Reference value :  2.66503e-04
 Reference value :  2.66503e-04
 Reference value :  2.66504e-04
 Reference value :  2.66506e-04
 Reference value :  2.66506e-04
 Reference value :  2.66508e-04
 Reference value :  2.66511e-04
 Reference value :  2.66513e-04
 Reference value :  2.66515e-04
 Reference value :  2.66517e-04
 Reference value :  2.66521e-04
 Reference value :  2.66538e-04
 Reference value :  2.66566e-04
 Reference value :  2.66580e-04
 Reference value :  2.66599e-04
 Reference value :  2.66717e-04
 Reference value :  2.66750e-04
 Reference value :  2.66750e-04
 Reference value :  2.66750e-04
 Reference value :  2.66751e-04
 Reference value :  2.66752e-04
 Reference value :  2.66754e-04
 Reference value :  2.66756e-04
 Reference value :  2.66762e-04
 Reference value :  2.66805e-04
 Reference value :  2.67000e-04
 Reference value :  2.67000e-04
 Reference value :  2.67000e-04
 Reference value :  2.67001e-04
 Reference value :  2.67002e-04
 Reference value :  2.67003e-04
 Reference value :  2.67005e-04
 Reference value :  2.67007e-04
 Reference value :  2.67009e-04
 Reference value :  2.67012e-04
 Reference value :  2.67048e-04
 Reference value :  2.67250e-04
 Reference value :  2.67250e-04
 Reference value :  2.67250e-04
 Reference value :  2.67251e-04
 Reference value :  2.67251e-04
 Reference value :  2.67252e-04
 Reference value :  2.67254e-04
 Reference value :  2.67254e-04
 Reference value :  2.67256e-04
 Reference value :  2.67258e-04
 Reference value :  2.67259e-04
 Reference value :  2.67265e-04
 Reference value :  2.67287e-04
 Reference value :  2.67500e-04
 Reference value :  2.67500e-04
 Reference value :  2.67500e-04
 Reference value :  2.67500e-04
 Reference value :  2.67501e-04
 Reference value :  2.67502e-04
 Reference value :  2.67503e-04
 Reference value :  2.67504e-04
 Reference value :  2.67506e-04
 Reference value :  2.67507e-04
 Reference value :  2.67508e-04
 Reference value :  2.67511e-04
 Reference value :  2.67513e-04
 Reference value :  2.67514e-04
 Reference value :  2.67516e-04
 Reference value :  2.67519e-04
 Reference value :  2.67521e-04
 Reference value :  2.67532e-04
 Reference value :  2.67542e-04
 Reference value :  2.67544e-04
 Reference value :  2.67551e-04
 Reference value :  2.67577e-04
 Reference value :  2.67648e-04
 Reference value :  2.67750e-04
 Reference value :  2.67750e-04
 Reference value :  2.67751e-04
 Reference value :  2.67753e-04
 Reference value :  2.67755e-04
 Reference value :  2.67759e-04
 Reference value :  2.67805e-04
 Reference value :  2.68000e-04
 Reference value :  2.68000e-04
 Reference value :  2.68001e-04
 Reference value :  2.68003e-04
 Reference value :  2.68004e-04
 Reference value :  2.68007e-04
 Reference value :  2.68010e-04
 Reference value :  2.68016e-04
 Reference value :  2.68142e-04
 Reference value :  2.68250e-04
 Reference value :  2.68250e-04
 Reference value :  2.68251e-04
 Reference value :  2.68252e-04
 Reference value :  2.68254e-04
 Reference value :  2.68256e-04
 Reference value :  2.68261e-04
 Reference value :  2.68340e-04
 Reference value :  2.68500e-04
 Reference value :  2.68500e-04
 Reference value :  2.68500e-04
 Reference value :  2.68501e-04
 Reference value :  2.68503e-04
 Reference value :  2.68504e-04
 Reference value :  2.68506e-04
 Reference value :  2.68507e-04
 Reference value :  2.68510e-04
 Reference value :  2.68513e-04
 Reference value :  2.68515e-04
 Reference value :  2.68518e-04
 Reference value :  2.68526e-04
 Reference value :  2.68543e-04
 Reference value :  2.68558e-04
 Reference value :  2.68571e-04
 Reference value :  2.68602e-04
 Reference value :  2.68741e-04
 Reference value :  2.68750e-04
 Reference value :  2.68750e-04
 Reference value :  2.68751e-04
 Reference value :  2.68753e-04
 Reference value :  2.68754e-04
 Reference value :  2.68757e-04
 Reference value :  2.68773e-04
 Reference value :  2.68900e-04
 Reference value :  2.69000e-04
 Reference value :  2.69000e-04
 Reference value :  2.69001e-04
 Reference value :  2.69002e-04
 Reference value :  2.69003e-04
 Reference value :  2.69005e-04
 Reference value :  2.69007e-04
 Reference value :  2.69009e-04
 Reference value :  2.69015e-04
 Reference value :  2.69048e-04
 Reference value :  2.69250e-04
 Reference value :  2.69250e-04
 Reference value :  2.69250e-04
 Reference value :  2.69250e-04
 Reference value :  2.69251e-04
 Reference value :  2.69252e-04
 Reference value :  2.69254e-04
 Reference value :  2.69256e-04
 Reference value :  2.69258e-04
 Reference value :  2.69262e-04
 Reference value :  2.69308e-04
 Reference value :  2.69500e-04
 Reference value :  2.69500e-04
 Reference value :  2.69500e-04
 Reference value :  2.69501e-04
 Reference value :  2.69503e-04
 Reference value :  2.69504e-04
 Reference value :  2.69506e-04
 Reference value :  2.69508e-04
 Reference value :  2.69511e-04
 Reference value :  2.69513e-04
 Reference value :  2.69514e-04
 Reference value :  2.69518e-04
 Reference value :  2.69524e-04
 Reference value :  2.69541e-04
 Reference value :  2.69574e-04
 Reference value :  2.69601e-04
 Reference value :  2.69655e-04
 Reference value :  2.69750e-04
 Reference value :  2.69750e-04
 Reference value :  2.69750e-04
 Reference value :  2.69751e-04
 Reference value :  2.69752e-04
 Reference value :  2.69754e-04
 Reference value :  2.69755e-04
 Reference value :  2.69758e-04
 Reference value :  2.69784e-04
 Reference value :  2.70000e-04
 Reference value :  2.70000e-04
 Reference value :  2.70000e-04
 Reference value :  2.70002e-04
 Reference value :  2.70003e-04
 Reference value :  2.70004e-04
 Reference value :  2.70005e-04
 Reference value :  2.70007e-04
 Reference value :  2.70009e-04
 Reference value :  2.70012e-04
 Reference value :  2.70028e-04
 Reference value :  2.70250e-04
 Reference value :  2.70250e-04
 Reference value :  2.70250e-04
 Reference value :  2.70250e-04
 Reference value :  2.70251e-04
 Reference value :  2.70253e-04
 Reference value :  2.70254e-04
 Reference value :  2.70257e-04
 Reference value :  2.70261e-04
 Reference value :  2.70305e-04
 Reference value :  2.70500e-04
 Reference value :  2.70500e-04
 Reference value :  2.70500e-04
 Reference value :  2.70501e-04
 Reference value :  2.70502e-04
 Reference value :  2.70503e-04
 Reference value :  2.70504e-04
 Reference value :  2.70505e-04
 Reference value :  2.70506e-04
 Reference value :  2.70506e-04
 Reference value :  2.70508e-04
 Reference value :  2.70513e-04
 Reference value :  2.70515e-04
 Reference value :  2.70517e-04
 Reference value :  2.70521e-04
 Reference value :  2.70538e-04
 Reference value :  2.70553e-04
 Reference value :  2.70578e-04
 Reference value :  2.70604e-04
 Reference value :  2.70723e-04
 Reference value :  2.70750e-04
 Reference value :  2.70750e-04
 Reference value :  2.70751e-04
 Reference value :  2.70751e-04
 Reference value :  2.70752e-04
 Reference value :  2.70754e-04
 Reference value :  2.70755e-04
 Reference value :  2.70758e-04
 Reference value :  2.70766e-04
 Reference value :  2.70838e-04
 Reference value :  2.71000e-04
 Reference value :  2.71000e-04
 Reference value :  2.71000e-04
 Reference value :  2.71000e-04
 Reference value :  2.71001e-04
 Reference value :  2.71002e-04
 Reference value :  2.71004e-04
 Reference value :  2.71006e-04
 Reference value :  2.71007e-04
 Reference value :  2.71009e-04
 Reference value :  2.71011e-04
 Reference value :  2.71029e-04
 Reference value :  2.71160e-04
 Reference value :  2.71250e-04
 Reference value :  2.71250e-04
 Reference value :  2.71250e-04
 Reference value :  2.71251e-04
 Reference value :  2.71251e-04
 Reference value :  2.71252e-04
 Reference value :  2.71254e-04
 Reference value :  2.71255e-04
 Reference value :  2.71257e-04
 Reference value :  2.71258e-04
 Reference value :  2.71262e-04
 Reference value :  2.71287e-04
 Reference value :  2.71423e-04
 Reference value :  2.71500e-04
 Reference value :  2.71500e-04
 Reference value :  2.71500e-04
 Reference value :  2.71501e-04
 Reference value :  2.71502e-04
 Reference value :  2.71503e-04
 Reference value :  2.71504e-04
 Reference value :  2.71504e-04
 Reference value :  2.71506e-04
 Reference value :  2.71508e-04
 Reference value :  2.71510e-04
 Reference value :  2.71513e-04
 Reference value :  2.71518e-04
 Reference value :  2.71548e-04
 Reference value :  2.71579e-04
 Reference value :  2.71617e-04
 Reference value :  2.71719e-04
 Reference value :  2.71750e-04
 Reference value :  2.71750e-04
 Reference value :  2.71751e-04
 Reference value :  2.71753e-04
 Reference value :  2.71755e-04
 Reference value :  2.71756e-04
 Reference value :  2.71759e-04
 Reference value :  2.71771e-04
 Reference value :  2.71825e-04
 Reference value :  2.72000e-04
No. of Data Rows : 39190
ngspice-44 done
