
Note: Compatibility modes selected: hs a


Circuit: ** sch_path: /home/ece/cace/sar-adc-using-sky130-pdk/runs/run_2025-09-10_23-58-59/parameters/dnl/run_0/sar_output_dnl.sch

option SCALE: Scale is set to 1e-06 for instance and model parameters
option SCALE: Scale is set to 1e-06 for instance and model parameters
option SCALE: Scale is set to 1e-06 for instance and model parameters
option SCALE: Scale is set to 1e-06 for instance and model parameters
Doing analysis at TEMP = 27.000000 and TNOM = 27.000000

Using KLU as Direct Linear Solver
Operating point simulation skipped by 'uic',
  now using transient initial conditions.
 Reference value :  1.00000e-12
 Reference value :  1.02772e-12
 Reference value :  1.08316e-12
 Reference value :  1.19404e-12
 Reference value :  1.33846e-12
 Reference value :  1.62730e-12
 Reference value :  2.20497e-12
 Reference value :  3.04315e-12
 Reference value :  3.94942e-12
 Reference value :  5.16923e-12
 Reference value :  6.91424e-12
 Reference value :  1.00881e-11
 Reference value :  1.37907e-11
 Reference value :  2.05074e-11
 Reference value :  2.75054e-11
 Reference value :  3.64155e-11
 Reference value :  4.74814e-11
 Reference value :  6.41246e-11
 Reference value :  8.43234e-11
 Reference value :  1.00000e-10
 Reference value :  1.01312e-10
 Reference value :  1.03936e-10
 Reference value :  1.09185e-10
 Reference value :  1.19681e-10
 Reference value :  1.40675e-10
 Reference value :  1.82662e-10
 Reference value :  2.66635e-10
 Reference value :  4.18233e-10
 Reference value :  5.88369e-10
 Reference value :  8.60905e-10
 Reference value :  1.24032e-09
 Reference value :  1.75930e-09
 Reference value :  2.56570e-09
 Reference value :  3.30863e-09
 Reference value :  4.37167e-09
 Reference value :  5.28394e-09
 Reference value :  6.23171e-09
 Reference value :  7.62568e-09
 Reference value :  8.99450e-09
 Reference value :  1.04327e-08
 Reference value :  1.13765e-08
 Reference value :  1.22328e-08
 Reference value :  1.32187e-08
 Reference value :  1.42745e-08
 Reference value :  1.63861e-08
 Reference value :  1.93121e-08
 Reference value :  2.29531e-08
 Reference value :  2.68218e-08
 Reference value :  3.03876e-08
 Reference value :  3.41806e-08
 Reference value :  3.78989e-08
 Reference value :  4.21526e-08
 Reference value :  5.06599e-08
 Reference value :  6.01853e-08
 Reference value :  7.88478e-08
 Reference value :  1.13327e-07
 Reference value :  1.79214e-07
 Reference value :  2.48948e-07
 Reference value :  2.50100e-07
 Reference value :  2.50110e-07
 Reference value :  2.50130e-07
 Reference value :  2.50170e-07
 Reference value :  2.50200e-07
 Reference value :  2.50201e-07
 Reference value :  2.50202e-07
 Reference value :  2.50204e-07
 Reference value :  2.50208e-07
 Reference value :  2.50216e-07
 Reference value :  2.50233e-07
 Reference value :  2.50267e-07
 Reference value :  2.50335e-07
 Reference value :  2.50428e-07
 Reference value :  2.50612e-07
 Reference value :  2.50793e-07
 Reference value :  2.51137e-07
 Reference value :  2.51560e-07
 Reference value :  2.52263e-07
 Reference value :  2.52903e-07
 Reference value :  2.53743e-07
 Reference value :  2.54760e-07
 Reference value :  2.55925e-07
 Reference value :  2.56999e-07
 Reference value :  2.58032e-07
 Reference value :  2.59194e-07
 Reference value :  2.60295e-07
 Reference value :  2.62108e-07
 Reference value :  2.64717e-07
 Reference value :  2.67413e-07
 Reference value :  2.72034e-07
 Reference value :  2.78779e-07
 Reference value :  2.92270e-07
 Reference value :  3.19251e-07
 Reference value :  3.70114e-07
 Reference value :  4.71841e-07
 Reference value :  5.00000e-07
 Reference value :  5.00010e-07
 Reference value :  5.00030e-07
 Reference value :  5.00070e-07
 Reference value :  5.00100e-07
 Reference value :  5.00104e-07
 Reference value :  5.00113e-07
 Reference value :  5.00130e-07
 Reference value :  5.00164e-07
 Reference value :  5.00232e-07
 Reference value :  5.00369e-07
 Reference value :  5.00560e-07
 Reference value :  5.00941e-07
 Reference value :  5.01536e-07
 Reference value :  5.02163e-07
 Reference value :  5.02854e-07
 Reference value :  5.03676e-07
 Reference value :  5.04428e-07
 Reference value :  5.05342e-07
 Reference value :  5.06300e-07
 Reference value :  5.07291e-07
 Reference value :  5.08691e-07
 Reference value :  5.10114e-07
 Reference value :  5.12675e-07
 Reference value :  5.15600e-07
 Reference value :  5.17748e-07
 Reference value :  5.20194e-07
 Reference value :  5.22649e-07
 Reference value :  5.25203e-07
 Reference value :  5.28412e-07
 Reference value :  5.33033e-07
 Reference value :  5.39376e-07
 Reference value :  5.48759e-07
 Reference value :  5.67526e-07
 Reference value :  5.94944e-07
 Reference value :  6.46004e-07
 Reference value :  7.26614e-07
 Reference value :  7.50100e-07
 Reference value :  7.50110e-07
 Reference value :  7.50130e-07
 Reference value :  7.50170e-07
 Reference value :  7.50200e-07
 Reference value :  7.50201e-07
 Reference value :  7.50202e-07
 Reference value :  7.50205e-07
 Reference value :  7.50212e-07
 Reference value :  7.50224e-07
 Reference value :  7.50249e-07
 Reference value :  7.50298e-07
 Reference value :  7.50396e-07
 Reference value :  7.50594e-07
 Reference value :  7.50984e-07
 Reference value :  7.51569e-07
 Reference value :  7.52239e-07
 Reference value :  7.52985e-07
 Reference value :  7.53829e-07
 Reference value :  7.54923e-07
 Reference value :  7.55815e-07
 Reference value :  7.56875e-07
 Reference value :  7.57775e-07
 Reference value :  7.58760e-07
 Reference value :  7.59873e-07
 Reference value :  7.61122e-07
 Reference value :  7.63621e-07
 Reference value :  7.66426e-07
 Reference value :  7.70853e-07
 Reference value :  7.76790e-07
 Reference value :  7.83460e-07
 Reference value :  7.87833e-07
 Reference value :  7.91670e-07
 Reference value :  7.95728e-07
 Reference value :  7.99563e-07
 Reference value :  8.04320e-07
 Reference value :  8.10434e-07
 Reference value :  8.17401e-07
 Reference value :  8.24646e-07
 Reference value :  8.39136e-07
 Reference value :  8.55803e-07
 Reference value :  8.66927e-07
 Reference value :  8.82158e-07
 Reference value :  8.96435e-07
 Reference value :  9.23356e-07
 Reference value :  9.66839e-07
 Reference value :  1.00000e-06
 Reference value :  1.00001e-06
 Reference value :  1.00003e-06
 Reference value :  1.00007e-06
 Reference value :  1.00010e-06
 Reference value :  1.00010e-06
 Reference value :  1.00011e-06
 Reference value :  1.00013e-06
 Reference value :  1.00016e-06
 Reference value :  1.00023e-06
 Reference value :  1.00037e-06
 Reference value :  1.00056e-06
 Reference value :  1.00094e-06
 Reference value :  1.00153e-06
 Reference value :  1.00216e-06
 Reference value :  1.00285e-06
 Reference value :  1.00357e-06
 Reference value :  1.00432e-06
 Reference value :  1.00520e-06
 Reference value :  1.00617e-06
 Reference value :  1.00711e-06
 Reference value :  1.00800e-06
 Reference value :  1.00889e-06
 Reference value :  1.00987e-06
 Reference value :  1.01085e-06
 Reference value :  1.01229e-06
 Reference value :  1.01381e-06
 Reference value :  1.01593e-06
 Reference value :  1.01809e-06
 Reference value :  1.02014e-06
 Reference value :  1.02233e-06
 Reference value :  1.02424e-06
 Reference value :  1.02577e-06
 Reference value :  1.02724e-06
 Reference value :  1.02860e-06
 Reference value :  1.03008e-06
 Reference value :  1.03183e-06
 Reference value :  1.03387e-06
 Reference value :  1.03655e-06
 Reference value :  1.04036e-06
 Reference value :  1.04797e-06
 Reference value :  1.05912e-06
 Reference value :  1.07055e-06
 Reference value :  1.08025e-06
 Reference value :  1.08687e-06
 Reference value :  1.09350e-06
 Reference value :  1.09748e-06
 Reference value :  1.10205e-06
 Reference value :  1.11120e-06
 Reference value :  1.12049e-06
 Reference value :  1.13578e-06
 Reference value :  1.15015e-06
 Reference value :  1.17889e-06
 Reference value :  1.21930e-06
 Reference value :  1.25010e-06
 Reference value :  1.25011e-06
 Reference value :  1.25013e-06
 Reference value :  1.25017e-06
 Reference value :  1.25020e-06
 Reference value :  1.25020e-06
 Reference value :  1.25020e-06
 Reference value :  1.25021e-06
 Reference value :  1.25021e-06
 Reference value :  1.25022e-06
 Reference value :  1.25025e-06
 Reference value :  1.25030e-06
 Reference value :  1.25039e-06
 Reference value :  1.25059e-06
 Reference value :  1.25093e-06
 Reference value :  1.25155e-06
 Reference value :  1.25217e-06
 Reference value :  1.25295e-06
 Reference value :  1.25376e-06
 Reference value :  1.25484e-06
 Reference value :  1.25579e-06
 Reference value :  1.25688e-06
 Reference value :  1.25799e-06
 Reference value :  1.25906e-06
 Reference value :  1.26087e-06
 Reference value :  1.26261e-06
 Reference value :  1.26545e-06
 Reference value :  1.26900e-06
 Reference value :  1.27436e-06
 Reference value :  1.28508e-06
 Reference value :  1.30381e-06
 Reference value :  1.33810e-06
 Reference value :  1.40668e-06
 Reference value :  1.50000e-06
 Reference value :  1.50001e-06
 Reference value :  1.50003e-06
 Reference value :  1.50007e-06
 Reference value :  1.50010e-06
 Reference value :  1.50010e-06
 Reference value :  1.50011e-06
 Reference value :  1.50013e-06
 Reference value :  1.50016e-06
 Reference value :  1.50023e-06
 Reference value :  1.50037e-06
 Reference value :  1.50056e-06
 Reference value :  1.50093e-06
 Reference value :  1.50161e-06
 Reference value :  1.50223e-06
 Reference value :  1.50291e-06
 Reference value :  1.50362e-06
 Reference value :  1.50438e-06
 Reference value :  1.50523e-06
 Reference value :  1.50615e-06
 Reference value :  1.50719e-06
 Reference value :  1.50853e-06
 Reference value :  1.50991e-06
 Reference value :  1.51147e-06
 Reference value :  1.51304e-06
 Reference value :  1.51463e-06
 Reference value :  1.51657e-06
 Reference value :  1.51844e-06
 Reference value :  1.52078e-06
 Reference value :  1.52292e-06
 Reference value :  1.52721e-06
 Reference value :  1.53578e-06
 Reference value :  1.54893e-06
 Reference value :  1.57524e-06
 Reference value :  1.62785e-06
 Reference value :  1.73307e-06
 Reference value :  1.75010e-06
 Reference value :  1.75011e-06
 Reference value :  1.75013e-06
 Reference value :  1.75017e-06
 Reference value :  1.75020e-06
 Reference value :  1.75020e-06
 Reference value :  1.75020e-06
 Reference value :  1.75021e-06
 Reference value :  1.75021e-06
 Reference value :  1.75022e-06
 Reference value :  1.75025e-06
 Reference value :  1.75030e-06
 Reference value :  1.75039e-06
 Reference value :  1.75059e-06
 Reference value :  1.75093e-06
 Reference value :  1.75155e-06
 Reference value :  1.75216e-06
 Reference value :  1.75295e-06
 Reference value :  1.75376e-06
 Reference value :  1.75483e-06
 Reference value :  1.75576e-06
 Reference value :  1.75683e-06
 Reference value :  1.75777e-06
 Reference value :  1.75876e-06
 Reference value :  1.75991e-06
 Reference value :  1.76119e-06
 Reference value :  1.76375e-06
 Reference value :  1.76656e-06
 Reference value :  1.77110e-06
 Reference value :  1.77722e-06
 Reference value :  1.78947e-06
 Reference value :  1.81396e-06
 Reference value :  1.86295e-06
 Reference value :  1.96092e-06
 Reference value :  2.00000e-06
 Reference value :  2.00001e-06
 Reference value :  2.00003e-06
 Reference value :  2.00007e-06
 Reference value :  2.00010e-06
 Reference value :  2.00010e-06
 Reference value :  2.00011e-06
 Reference value :  2.00013e-06
 Reference value :  2.00016e-06
 Reference value :  2.00023e-06
 Reference value :  2.00037e-06
 Reference value :  2.00055e-06
 Reference value :  2.00092e-06
 Reference value :  2.00160e-06
 Reference value :  2.00223e-06
 Reference value :  2.00291e-06
 Reference value :  2.00363e-06
 Reference value :  2.00439e-06
 Reference value :  2.00523e-06
 Reference value :  2.00615e-06
 Reference value :  2.00717e-06
 Reference value :  2.00818e-06
 Reference value :  2.00924e-06
 Reference value :  2.01025e-06
 Reference value :  2.01134e-06
 Reference value :  2.01279e-06
 Reference value :  2.01461e-06
 Reference value :  2.01757e-06
 Reference value :  2.02043e-06
 Reference value :  2.02282e-06
 Reference value :  2.02486e-06
 Reference value :  2.02692e-06
 Reference value :  2.02893e-06
 Reference value :  2.03101e-06
 Reference value :  2.03338e-06
 Reference value :  2.03588e-06
 Reference value :  2.03883e-06
 Reference value :  2.04329e-06
 Reference value :  2.04944e-06
 Reference value :  2.05936e-06
 Reference value :  2.07519e-06
 Reference value :  2.10081e-06
 Reference value :  2.13700e-06
 Reference value :  2.20140e-06
 Reference value :  2.25010e-06
 Reference value :  2.25011e-06
 Reference value :  2.25013e-06
 Reference value :  2.25017e-06
 Reference value :  2.25020e-06
 Reference value :  2.25020e-06
 Reference value :  2.25020e-06
 Reference value :  2.25021e-06
 Reference value :  2.25021e-06
 Reference value :  2.25022e-06
 Reference value :  2.25025e-06
 Reference value :  2.25030e-06
 Reference value :  2.25039e-06
 Reference value :  2.25059e-06
 Reference value :  2.25092e-06
 Reference value :  2.25154e-06
 Reference value :  2.25216e-06
 Reference value :  2.25295e-06
 Reference value :  2.25375e-06
 Reference value :  2.25483e-06
 Reference value :  2.25579e-06
 Reference value :  2.25689e-06
 Reference value :  2.25798e-06
 Reference value :  2.25907e-06
 Reference value :  2.26086e-06
 Reference value :  2.26262e-06
 Reference value :  2.26544e-06
 Reference value :  2.26900e-06
 Reference value :  2.27435e-06
 Reference value :  2.28503e-06
 Reference value :  2.30368e-06
 Reference value :  2.33770e-06
 Reference value :  2.40575e-06
 Reference value :  2.49388e-06
 Reference value :  2.50000e-06
 Reference value :  2.50001e-06
 Reference value :  2.50003e-06
 Reference value :  2.50007e-06
 Reference value :  2.50010e-06
 Reference value :  2.50010e-06
 Reference value :  2.50011e-06
 Reference value :  2.50013e-06
 Reference value :  2.50016e-06
 Reference value :  2.50023e-06
 Reference value :  2.50037e-06
 Reference value :  2.50055e-06
 Reference value :  2.50092e-06
 Reference value :  2.50160e-06
 Reference value :  2.50223e-06
 Reference value :  2.50291e-06
 Reference value :  2.50363e-06
 Reference value :  2.50438e-06
 Reference value :  2.50524e-06
 Reference value :  2.50616e-06
 Reference value :  2.50719e-06
 Reference value :  2.50852e-06
 Reference value :  2.50991e-06
 Reference value :  2.51147e-06
 Reference value :  2.51303e-06
 Reference value :  2.51462e-06
 Reference value :  2.51655e-06
 Reference value :  2.51830e-06
 Reference value :  2.52027e-06
 Reference value :  2.52239e-06
 Reference value :  2.52664e-06
 Reference value :  2.53481e-06
 Reference value :  2.54850e-06
 Reference value :  2.57587e-06
 Reference value :  2.63062e-06
 Reference value :  2.74012e-06
 Reference value :  2.75010e-06
 Reference value :  2.75011e-06
 Reference value :  2.75013e-06
 Reference value :  2.75017e-06
 Reference value :  2.75020e-06
 Reference value :  2.75020e-06
 Reference value :  2.75020e-06
 Reference value :  2.75021e-06
 Reference value :  2.75021e-06
 Reference value :  2.75022e-06
 Reference value :  2.75025e-06
 Reference value :  2.75030e-06
 Reference value :  2.75039e-06
 Reference value :  2.75059e-06
 Reference value :  2.75093e-06
 Reference value :  2.75154e-06
 Reference value :  2.75216e-06
 Reference value :  2.75294e-06
 Reference value :  2.75375e-06
 Reference value :  2.75482e-06
 Reference value :  2.75575e-06
 Reference value :  2.75682e-06
 Reference value :  2.75776e-06
 Reference value :  2.75876e-06
 Reference value :  2.75989e-06
 Reference value :  2.76117e-06
 Reference value :  2.76371e-06
 Reference value :  2.76651e-06
 Reference value :  2.77103e-06
 Reference value :  2.77710e-06
 Reference value :  2.78925e-06
 Reference value :  2.81354e-06
 Reference value :  2.86213e-06
 Reference value :  2.95930e-06
 Reference value :  3.00000e-06
 Reference value :  3.00001e-06
 Reference value :  3.00003e-06
 Reference value :  3.00007e-06
 Reference value :  3.00010e-06
 Reference value :  3.00010e-06
 Reference value :  3.00011e-06
 Reference value :  3.00013e-06
 Reference value :  3.00016e-06
 Reference value :  3.00023e-06
 Reference value :  3.00037e-06
 Reference value :  3.00055e-06
 Reference value :  3.00092e-06
 Reference value :  3.00160e-06
 Reference value :  3.00223e-06
 Reference value :  3.00291e-06
 Reference value :  3.00363e-06
 Reference value :  3.00438e-06
 Reference value :  3.00523e-06
 Reference value :  3.00615e-06
 Reference value :  3.00710e-06
 Reference value :  3.00811e-06
 Reference value :  3.00918e-06
 Reference value :  3.01020e-06
 Reference value :  3.01129e-06
 Reference value :  3.01274e-06
 Reference value :  3.01454e-06
 Reference value :  3.01749e-06
 Reference value :  3.02028e-06
 Reference value :  3.02266e-06
 Reference value :  3.02457e-06
 Reference value :  3.02637e-06
 Reference value :  3.02839e-06
 Reference value :  3.03026e-06
 Reference value :  3.03255e-06
 Reference value :  3.03485e-06
 Reference value :  3.03824e-06
 Reference value :  3.04232e-06
 Reference value :  3.05010e-06
 Reference value :  3.06239e-06
 Reference value :  3.08246e-06
 Reference value :  3.11210e-06
 Reference value :  3.17139e-06
 Reference value :  3.22486e-06
 Reference value :  3.25010e-06
 Reference value :  3.25011e-06
 Reference value :  3.25013e-06
 Reference value :  3.25017e-06
 Reference value :  3.25020e-06
 Reference value :  3.25020e-06
 Reference value :  3.25020e-06
 Reference value :  3.25021e-06
 Reference value :  3.25021e-06
 Reference value :  3.25022e-06
 Reference value :  3.25025e-06
 Reference value :  3.25030e-06
 Reference value :  3.25039e-06
 Reference value :  3.25059e-06
 Reference value :  3.25092e-06
 Reference value :  3.25154e-06
 Reference value :  3.25216e-06
 Reference value :  3.25294e-06
 Reference value :  3.25375e-06
 Reference value :  3.25482e-06
 Reference value :  3.25578e-06
 Reference value :  3.25687e-06
 Reference value :  3.25797e-06
 Reference value :  3.25905e-06
 Reference value :  3.26084e-06
 Reference value :  3.26258e-06
 Reference value :  3.26540e-06
 Reference value :  3.26893e-06
 Reference value :  3.27424e-06
 Reference value :  3.28486e-06
 Reference value :  3.30345e-06
 Reference value :  3.33736e-06
 Reference value :  3.40519e-06
 Reference value :  3.50000e-06
 Reference value :  3.50001e-06
 Reference value :  3.50003e-06
 Reference value :  3.50007e-06
 Reference value :  3.50010e-06
 Reference value :  3.50010e-06
 Reference value :  3.50011e-06
 Reference value :  3.50013e-06
 Reference value :  3.50016e-06
 Reference value :  3.50023e-06
 Reference value :  3.50037e-06
 Reference value :  3.50056e-06
 Reference value :  3.50093e-06
 Reference value :  3.50161e-06
 Reference value :  3.50223e-06
 Reference value :  3.50291e-06
 Reference value :  3.50362e-06
 Reference value :  3.50438e-06
 Reference value :  3.50523e-06
 Reference value :  3.50615e-06
 Reference value :  3.50711e-06
 Reference value :  3.50846e-06
 Reference value :  3.50978e-06
 Reference value :  3.51140e-06
 Reference value :  3.51288e-06
 Reference value :  3.51443e-06
 Reference value :  3.51595e-06
 Reference value :  3.51766e-06
 Reference value :  3.51944e-06
 Reference value :  3.52136e-06
 Reference value :  3.52521e-06
 Reference value :  3.53287e-06
 Reference value :  3.54582e-06
 Reference value :  3.57173e-06
 Reference value :  3.62353e-06
 Reference value :  3.72713e-06
 Reference value :  3.75010e-06
 Reference value :  3.75011e-06
 Reference value :  3.75013e-06
 Reference value :  3.75017e-06
 Reference value :  3.75020e-06
 Reference value :  3.75020e-06
 Reference value :  3.75020e-06
 Reference value :  3.75021e-06
 Reference value :  3.75021e-06
 Reference value :  3.75022e-06
 Reference value :  3.75025e-06
 Reference value :  3.75030e-06
 Reference value :  3.75039e-06
 Reference value :  3.75059e-06
 Reference value :  3.75093e-06
 Reference value :  3.75154e-06
 Reference value :  3.75216e-06
 Reference value :  3.75294e-06
 Reference value :  3.75375e-06
 Reference value :  3.75482e-06
 Reference value :  3.75574e-06
 Reference value :  3.75681e-06
 Reference value :  3.75775e-06
 Reference value :  3.75874e-06
 Reference value :  3.75987e-06
 Reference value :  3.76114e-06
 Reference value :  3.76368e-06
 Reference value :  3.76646e-06
 Reference value :  3.77096e-06
 Reference value :  3.77696e-06
 Reference value :  3.78895e-06
 Reference value :  3.81295e-06
 Reference value :  3.86093e-06
 Reference value :  3.95691e-06
 Reference value :  4.00000e-06
 Reference value :  4.00001e-06
 Reference value :  4.00003e-06
 Reference value :  4.00007e-06
 Reference value :  4.00010e-06
 Reference value :  4.00010e-06
 Reference value :  4.00011e-06
 Reference value :  4.00013e-06
 Reference value :  4.00016e-06
 Reference value :  4.00023e-06
 Reference value :  4.00037e-06
 Reference value :  4.00055e-06
 Reference value :  4.00092e-06
 Reference value :  4.00160e-06
 Reference value :  4.00223e-06
 Reference value :  4.00291e-06
 Reference value :  4.00363e-06
 Reference value :  4.00439e-06
 Reference value :  4.00523e-06
 Reference value :  4.00615e-06
 Reference value :  4.00717e-06
 Reference value :  4.00818e-06
 Reference value :  4.00913e-06
 Reference value :  4.01013e-06
 Reference value :  4.01118e-06
 Reference value :  4.01254e-06
 Reference value :  4.01442e-06
 Reference value :  4.01728e-06
 Reference value :  4.02018e-06
 Reference value :  4.02255e-06
 Reference value :  4.02447e-06
 Reference value :  4.02627e-06
 Reference value :  4.02828e-06
 Reference value :  4.03017e-06
 Reference value :  4.03236e-06
 Reference value :  4.03473e-06
 Reference value :  4.03807e-06
 Reference value :  4.04203e-06
 Reference value :  4.04943e-06
 Reference value :  4.06085e-06
 Reference value :  4.07303e-06
 Reference value :  4.08436e-06
 Reference value :  4.09355e-06
 Reference value :  4.10084e-06
 Reference value :  4.10761e-06
 Reference value :  4.11464e-06
 Reference value :  4.12178e-06
 Reference value :  4.12880e-06
 Reference value :  4.13689e-06
 Reference value :  4.15052e-06
 Reference value :  4.16537e-06
 Reference value :  4.18859e-06
 Reference value :  4.21602e-06
 Reference value :  4.24895e-06
 Reference value :  4.25010e-06
 Reference value :  4.25011e-06
 Reference value :  4.25013e-06
 Reference value :  4.25017e-06
 Reference value :  4.25020e-06
 Reference value :  4.25020e-06
 Reference value :  4.25020e-06
 Reference value :  4.25021e-06
 Reference value :  4.25021e-06
 Reference value :  4.25022e-06
 Reference value :  4.25025e-06
 Reference value :  4.25030e-06
 Reference value :  4.25039e-06
 Reference value :  4.25059e-06
 Reference value :  4.25092e-06
 Reference value :  4.25154e-06
 Reference value :  4.25216e-06
 Reference value :  4.25294e-06
 Reference value :  4.25375e-06
 Reference value :  4.25481e-06
 Reference value :  4.25568e-06
 Reference value :  4.25671e-06
 Reference value :  4.25768e-06
 Reference value :  4.25870e-06
 Reference value :  4.26042e-06
 Reference value :  4.26200e-06
 Reference value :  4.26444e-06
 Reference value :  4.26720e-06
 Reference value :  4.27010e-06
 Reference value :  4.27526e-06
 Reference value :  4.28057e-06
 Reference value :  4.28753e-06
 Reference value :  4.29440e-06
 Reference value :  4.30814e-06
 Reference value :  4.33101e-06
 Reference value :  4.37676e-06
 Reference value :  4.46826e-06
 Reference value :  4.50000e-06
 Reference value :  4.50001e-06
 Reference value :  4.50003e-06
 Reference value :  4.50007e-06
 Reference value :  4.50010e-06
 Reference value :  4.50010e-06
 Reference value :  4.50011e-06
 Reference value :  4.50013e-06
 Reference value :  4.50016e-06
 Reference value :  4.50023e-06
 Reference value :  4.50037e-06
 Reference value :  4.50055e-06
 Reference value :  4.50092e-06
 Reference value :  4.50161e-06
 Reference value :  4.50223e-06
 Reference value :  4.50291e-06
 Reference value :  4.50362e-06
 Reference value :  4.50438e-06
 Reference value :  4.50523e-06
 Reference value :  4.50615e-06
 Reference value :  4.50711e-06
 Reference value :  4.50846e-06
 Reference value :  4.50977e-06
 Reference value :  4.51128e-06
 Reference value :  4.51281e-06
 Reference value :  4.51437e-06
 Reference value :  4.51582e-06
 Reference value :  4.51740e-06
 Reference value :  4.51901e-06
 Reference value :  4.52087e-06
 Reference value :  4.52459e-06
 Reference value :  4.53062e-06
 Reference value :  4.54267e-06
 Reference value :  4.56677e-06
 Reference value :  4.61497e-06
 Reference value :  4.71137e-06
 Reference value :  4.75010e-06
 Reference value :  4.75011e-06
 Reference value :  4.75013e-06
 Reference value :  4.75017e-06
 Reference value :  4.75020e-06
 Reference value :  4.75020e-06
 Reference value :  4.75020e-06
 Reference value :  4.75021e-06
 Reference value :  4.75021e-06
 Reference value :  4.75022e-06
 Reference value :  4.75025e-06
 Reference value :  4.75030e-06
 Reference value :  4.75039e-06
 Reference value :  4.75059e-06
 Reference value :  4.75092e-06
 Reference value :  4.75154e-06
 Reference value :  4.75216e-06
 Reference value :  4.75294e-06
 Reference value :  4.75375e-06
 Reference value :  4.75481e-06
 Reference value :  4.75573e-06
 Reference value :  4.75680e-06
 Reference value :  4.75774e-06
 Reference value :  4.75873e-06
 Reference value :  4.75986e-06
 Reference value :  4.76112e-06
 Reference value :  4.76366e-06
 Reference value :  4.76643e-06
 Reference value :  4.77092e-06
 Reference value :  4.77687e-06
 Reference value :  4.78879e-06
 Reference value :  4.81261e-06
 Reference value :  4.86027e-06
 Reference value :  4.95558e-06
 Reference value :  5.00000e-06
 Reference value :  5.00001e-06
 Reference value :  5.00003e-06
 Reference value :  5.00007e-06
 Reference value :  5.00010e-06
 Reference value :  5.00010e-06
 Reference value :  5.00011e-06
 Reference value :  5.00013e-06
 Reference value :  5.00016e-06
 Reference value :  5.00023e-06
 Reference value :  5.00037e-06
 Reference value :  5.00055e-06
 Reference value :  5.00092e-06
 Reference value :  5.00160e-06
 Reference value :  5.00223e-06
 Reference value :  5.00291e-06
 Reference value :  5.00364e-06
 Reference value :  5.00440e-06
 Reference value :  5.00525e-06
 Reference value :  5.00617e-06
 Reference value :  5.00718e-06
 Reference value :  5.00822e-06
 Reference value :  5.00909e-06
 Reference value :  5.01013e-06
 Reference value :  5.01115e-06
 Reference value :  5.01249e-06
 Reference value :  5.01444e-06
 Reference value :  5.01734e-06
 Reference value :  5.02026e-06
 Reference value :  5.02266e-06
 Reference value :  5.02460e-06
 Reference value :  5.02642e-06
 Reference value :  5.02845e-06
 Reference value :  5.03034e-06
 Reference value :  5.03278e-06
 Reference value :  5.03500e-06
 Reference value :  5.03849e-06
 Reference value :  5.04294e-06
 Reference value :  5.05034e-06
 Reference value :  5.05738e-06
 Reference value :  5.06426e-06
 Reference value :  5.07143e-06
 Reference value :  5.07648e-06
 Reference value :  5.08180e-06
 Reference value :  5.08809e-06
 Reference value :  5.09540e-06
 Reference value :  5.10250e-06
 Reference value :  5.11088e-06
 Reference value :  5.11928e-06
 Reference value :  5.13601e-06
 Reference value :  5.15448e-06
 Reference value :  5.18438e-06
 Reference value :  5.23239e-06
 Reference value :  5.25010e-06
 Reference value :  5.25011e-06
 Reference value :  5.25013e-06
 Reference value :  5.25017e-06
 Reference value :  5.25020e-06
 Reference value :  5.25020e-06
 Reference value :  5.25020e-06
 Reference value :  5.25021e-06
 Reference value :  5.25021e-06
 Reference value :  5.25022e-06
 Reference value :  5.25025e-06
 Reference value :  5.25030e-06
 Reference value :  5.25040e-06
 Reference value :  5.25059e-06
 Reference value :  5.25094e-06
 Reference value :  5.25154e-06
 Reference value :  5.25218e-06
 Reference value :  5.25294e-06
 Reference value :  5.25376e-06
 Reference value :  5.25482e-06
 Reference value :  5.25570e-06
 Reference value :  5.25673e-06
 Reference value :  5.25771e-06
 Reference value :  5.25873e-06
 Reference value :  5.26044e-06
 Reference value :  5.26204e-06
 Reference value :  5.26489e-06
 Reference value :  5.26801e-06
 Reference value :  5.27306e-06
 Reference value :  5.28233e-06
 Reference value :  5.30088e-06
 Reference value :  5.33786e-06
 Reference value :  5.41182e-06
 Reference value :  5.50000e-06
 Reference value :  5.50001e-06
 Reference value :  5.50003e-06
 Reference value :  5.50007e-06
 Reference value :  5.50010e-06
 Reference value :  5.50010e-06
 Reference value :  5.50011e-06
 Reference value :  5.50013e-06
 Reference value :  5.50016e-06
 Reference value :  5.50023e-06
 Reference value :  5.50037e-06
 Reference value :  5.50056e-06
 Reference value :  5.50093e-06
 Reference value :  5.50161e-06
 Reference value :  5.50223e-06
 Reference value :  5.50286e-06
 Reference value :  5.50357e-06
 Reference value :  5.50431e-06
 Reference value :  5.50516e-06
 Reference value :  5.50606e-06
 Reference value :  5.50711e-06
 Reference value :  5.50844e-06
 Reference value :  5.50981e-06
 Reference value :  5.51137e-06
 Reference value :  5.51290e-06
 Reference value :  5.51445e-06
 Reference value :  5.51592e-06
 Reference value :  5.51751e-06
 Reference value :  5.51919e-06
 Reference value :  5.52112e-06
 Reference value :  5.52488e-06
 Reference value :  5.53036e-06
 Reference value :  5.54133e-06
 Reference value :  5.56325e-06
 Reference value :  5.60545e-06
 Reference value :  5.68985e-06
 Reference value :  5.75010e-06
 Reference value :  5.75011e-06
 Reference value :  5.75013e-06
 Reference value :  5.75017e-06
 Reference value :  5.75020e-06
 Reference value :  5.75020e-06
 Reference value :  5.75020e-06
 Reference value :  5.75021e-06
 Reference value :  5.75021e-06
 Reference value :  5.75022e-06
 Reference value :  5.75025e-06
 Reference value :  5.75030e-06
 Reference value :  5.75039e-06
 Reference value :  5.75059e-06
 Reference value :  5.75093e-06
 Reference value :  5.75154e-06
 Reference value :  5.75216e-06
 Reference value :  5.75294e-06
 Reference value :  5.75375e-06
 Reference value :  5.75481e-06
 Reference value :  5.75574e-06
 Reference value :  5.75682e-06
 Reference value :  5.75776e-06
 Reference value :  5.75876e-06
 Reference value :  5.75990e-06
 Reference value :  5.76117e-06
 Reference value :  5.76247e-06
 Reference value :  5.76424e-06
 Reference value :  5.76654e-06
 Reference value :  5.76930e-06
 Reference value :  5.77302e-06
 Reference value :  5.77824e-06
 Reference value :  5.78867e-06
 Reference value :  5.80775e-06
 Reference value :  5.84590e-06
 Reference value :  5.92221e-06
 Reference value :  6.00000e-06
 Reference value :  6.00001e-06
 Reference value :  6.00003e-06
 Reference value :  6.00007e-06
 Reference value :  6.00010e-06
 Reference value :  6.00010e-06
 Reference value :  6.00011e-06
 Reference value :  6.00013e-06
 Reference value :  6.00016e-06
 Reference value :  6.00023e-06
 Reference value :  6.00037e-06
 Reference value :  6.00055e-06
 Reference value :  6.00092e-06
 Reference value :  6.00160e-06
 Reference value :  6.00223e-06
 Reference value :  6.00291e-06
 Reference value :  6.00363e-06
 Reference value :  6.00438e-06
 Reference value :  6.00523e-06
 Reference value :  6.00613e-06
 Reference value :  6.00708e-06
 Reference value :  6.00794e-06
 Reference value :  6.00880e-06
 Reference value :  6.00981e-06
 Reference value :  6.01077e-06
 Reference value :  6.01209e-06
 Reference value :  6.01392e-06
 Reference value :  6.01570e-06
 Reference value :  6.01751e-06
 Reference value :  6.01955e-06
 Reference value :  6.02145e-06
 Reference value :  6.02334e-06
 Reference value :  6.02473e-06
 Reference value :  6.02600e-06
 Reference value :  6.02738e-06
 Reference value :  6.02876e-06
 Reference value :  6.03019e-06
 Reference value :  6.03182e-06
 Reference value :  6.03405e-06
 Reference value :  6.03659e-06
 Reference value :  6.04056e-06
 Reference value :  6.04495e-06
 Reference value :  6.04988e-06
 Reference value :  6.05514e-06
 Reference value :  6.06122e-06
 Reference value :  6.06851e-06
 Reference value :  6.07811e-06
 Reference value :  6.09117e-06
 Reference value :  6.10671e-06
 Reference value :  6.12392e-06
 Reference value :  6.13963e-06
 Reference value :  6.15687e-06
 Reference value :  6.17769e-06
 Reference value :  6.20010e-06
 Reference value :  6.23653e-06
 Reference value :  6.25010e-06
 Reference value :  6.25011e-06
 Reference value :  6.25013e-06
 Reference value :  6.25017e-06
 Reference value :  6.25020e-06
 Reference value :  6.25020e-06
 Reference value :  6.25020e-06
 Reference value :  6.25021e-06
 Reference value :  6.25021e-06
 Reference value :  6.25022e-06
 Reference value :  6.25025e-06
 Reference value :  6.25030e-06
 Reference value :  6.25040e-06
 Reference value :  6.25059e-06
 Reference value :  6.25094e-06
 Reference value :  6.25154e-06
 Reference value :  6.25218e-06
 Reference value :  6.25294e-06
 Reference value :  6.25376e-06
 Reference value :  6.25483e-06
 Reference value :  6.25575e-06
 Reference value :  6.25681e-06
 Reference value :  6.25792e-06
 Reference value :  6.25896e-06
 Reference value :  6.26076e-06
 Reference value :  6.26246e-06
 Reference value :  6.26527e-06
 Reference value :  6.26873e-06
 Reference value :  6.27393e-06
 Reference value :  6.28433e-06
 Reference value :  6.30286e-06
 Reference value :  6.33662e-06
 Reference value :  6.40413e-06
 Reference value :  6.50000e-06
 Reference value :  6.50001e-06
 Reference value :  6.50003e-06
 Reference value :  6.50007e-06
 Reference value :  6.50010e-06
 Reference value :  6.50010e-06
 Reference value :  6.50011e-06
 Reference value :  6.50013e-06
 Reference value :  6.50016e-06
 Reference value :  6.50023e-06
 Reference value :  6.50037e-06
 Reference value :  6.50056e-06
 Reference value :  6.50093e-06
 Reference value :  6.50161e-06
 Reference value :  6.50223e-06
 Reference value :  6.50286e-06
 Reference value :  6.50357e-06
 Reference value :  6.50431e-06
 Reference value :  6.50516e-06
 Reference value :  6.50606e-06
 Reference value :  6.50702e-06
 Reference value :  6.50838e-06
 Reference value :  6.50965e-06
 Reference value :  6.51122e-06
 Reference value :  6.51252e-06
 Reference value :  6.51392e-06
 Reference value :  6.51526e-06
 Reference value :  6.51687e-06
 Reference value :  6.51854e-06
 Reference value :  6.52034e-06
 Reference value :  6.52393e-06
 Reference value :  6.53112e-06
 Reference value :  6.54426e-06
 Reference value :  6.57054e-06
 Reference value :  6.62310e-06
 Reference value :  6.72821e-06
 Reference value :  6.75010e-06
 Reference value :  6.75011e-06
 Reference value :  6.75013e-06
 Reference value :  6.75017e-06
 Reference value :  6.75020e-06
 Reference value :  6.75020e-06
 Reference value :  6.75020e-06
 Reference value :  6.75021e-06
 Reference value :  6.75021e-06
 Reference value :  6.75022e-06
 Reference value :  6.75025e-06
 Reference value :  6.75030e-06
 Reference value :  6.75039e-06
 Reference value :  6.75059e-06
 Reference value :  6.75093e-06
 Reference value :  6.75154e-06
 Reference value :  6.75216e-06
 Reference value :  6.75294e-06
 Reference value :  6.75375e-06
 Reference value :  6.75481e-06
 Reference value :  6.75574e-06
 Reference value :  6.75682e-06
 Reference value :  6.75777e-06
 Reference value :  6.75877e-06
 Reference value :  6.75991e-06
 Reference value :  6.76119e-06
 Reference value :  6.76253e-06
 Reference value :  6.76427e-06
 Reference value :  6.76669e-06
 Reference value :  6.76945e-06
 Reference value :  6.77329e-06
 Reference value :  6.77860e-06
 Reference value :  6.78923e-06
 Reference value :  6.81049e-06
 Reference value :  6.85301e-06
 Reference value :  6.93805e-06
 Reference value :  7.00000e-06
 Reference value :  7.00001e-06
 Reference value :  7.00003e-06
 Reference value :  7.00007e-06
 Reference value :  7.00010e-06
 Reference value :  7.00010e-06
 Reference value :  7.00011e-06
 Reference value :  7.00013e-06
 Reference value :  7.00016e-06
 Reference value :  7.00023e-06
 Reference value :  7.00037e-06
 Reference value :  7.00055e-06
 Reference value :  7.00092e-06
 Reference value :  7.00160e-06
 Reference value :  7.00223e-06
 Reference value :  7.00291e-06
 Reference value :  7.00363e-06
 Reference value :  7.00438e-06
 Reference value :  7.00522e-06
 Reference value :  7.00613e-06
 Reference value :  7.00697e-06
 Reference value :  7.00786e-06
 Reference value :  7.00876e-06
 Reference value :  7.00973e-06
 Reference value :  7.01072e-06
 Reference value :  7.01207e-06
 Reference value :  7.01371e-06
 Reference value :  7.01601e-06
 Reference value :  7.01763e-06
 Reference value :  7.01941e-06
 Reference value :  7.02099e-06
 Reference value :  7.02281e-06
 Reference value :  7.02436e-06
 Reference value :  7.02600e-06
 Reference value :  7.02756e-06
 Reference value :  7.02915e-06
 Reference value :  7.03065e-06
 Reference value :  7.03254e-06
 Reference value :  7.03497e-06
 Reference value :  7.03754e-06
 Reference value :  7.04114e-06
 Reference value :  7.04368e-06
 Reference value :  7.04641e-06
 Reference value :  7.05015e-06
 Reference value :  7.05438e-06
 Reference value :  7.05986e-06
 Reference value :  7.06721e-06
 Reference value :  7.08104e-06
 Reference value :  7.09972e-06
 Reference value :  7.13391e-06
 Reference value :  7.18671e-06
 Reference value :  7.25010e-06
 Reference value :  7.25011e-06
 Reference value :  7.25013e-06
 Reference value :  7.25017e-06
 Reference value :  7.25020e-06
 Reference value :  7.25020e-06
 Reference value :  7.25020e-06
 Reference value :  7.25021e-06
 Reference value :  7.25021e-06
 Reference value :  7.25022e-06
 Reference value :  7.25025e-06
 Reference value :  7.25030e-06
 Reference value :  7.25040e-06
 Reference value :  7.25059e-06
 Reference value :  7.25094e-06
 Reference value :  7.25154e-06
 Reference value :  7.25218e-06
 Reference value :  7.25294e-06
 Reference value :  7.25377e-06
 Reference value :  7.25483e-06
 Reference value :  7.25574e-06
 Reference value :  7.25680e-06
 Reference value :  7.25793e-06
 Reference value :  7.25896e-06
 Reference value :  7.26078e-06
 Reference value :  7.26246e-06
 Reference value :  7.26529e-06
 Reference value :  7.26873e-06
 Reference value :  7.27395e-06
 Reference value :  7.28439e-06
 Reference value :  7.30293e-06
 Reference value :  7.33678e-06
 Reference value :  7.40448e-06
 Reference value :  7.50000e-06
 Reference value :  7.50001e-06
 Reference value :  7.50003e-06
 Reference value :  7.50007e-06
 Reference value :  7.50010e-06
 Reference value :  7.50010e-06
 Reference value :  7.50011e-06
 Reference value :  7.50013e-06
 Reference value :  7.50016e-06
 Reference value :  7.50023e-06
 Reference value :  7.50037e-06
 Reference value :  7.50056e-06
 Reference value :  7.50093e-06
 Reference value :  7.50152e-06
 Reference value :  7.50214e-06
 Reference value :  7.50284e-06
 Reference value :  7.50356e-06
 Reference value :  7.50432e-06
 Reference value :  7.50517e-06
 Reference value :  7.50609e-06
 Reference value :  7.50713e-06
 Reference value :  7.50846e-06
 Reference value :  7.50984e-06
 Reference value :  7.51154e-06
 Reference value :  7.51306e-06
 Reference value :  7.51464e-06
 Reference value :  7.51607e-06
 Reference value :  7.51769e-06
 Reference value :  7.51929e-06
 Reference value :  7.52115e-06
 Reference value :  7.52488e-06
 Reference value :  7.53129e-06
 Reference value :  7.54411e-06
 Reference value :  7.56975e-06
 Reference value :  7.62102e-06
 Reference value :  7.72358e-06
 Reference value :  7.75010e-06
 Reference value :  7.75011e-06
 Reference value :  7.75013e-06
 Reference value :  7.75017e-06
 Reference value :  7.75020e-06
 Reference value :  7.75020e-06
 Reference value :  7.75020e-06
 Reference value :  7.75021e-06
 Reference value :  7.75021e-06
 Reference value :  7.75022e-06
 Reference value :  7.75025e-06
 Reference value :  7.75030e-06
 Reference value :  7.75039e-06
 Reference value :  7.75059e-06
 Reference value :  7.75093e-06
 Reference value :  7.75154e-06
 Reference value :  7.75217e-06
 Reference value :  7.75294e-06
 Reference value :  7.75375e-06
 Reference value :  7.75482e-06
 Reference value :  7.75571e-06
 Reference value :  7.75676e-06
 Reference value :  7.75767e-06
 Reference value :  7.75865e-06
 Reference value :  7.75977e-06
 Reference value :  7.76102e-06
 Reference value :  7.76353e-06
 Reference value :  7.76626e-06
 Reference value :  7.77069e-06
 Reference value :  7.77647e-06
 Reference value :  7.78804e-06
 Reference value :  7.81117e-06
 Reference value :  7.85743e-06
 Reference value :  7.94996e-06
 Reference value :  8.00000e-06
 Reference value :  8.00001e-06
 Reference value :  8.00003e-06
 Reference value :  8.00007e-06
 Reference value :  8.00010e-06
 Reference value :  8.00010e-06
 Reference value :  8.00011e-06
 Reference value :  8.00013e-06
 Reference value :  8.00016e-06
 Reference value :  8.00023e-06
 Reference value :  8.00037e-06
 Reference value :  8.00055e-06
 Reference value :  8.00092e-06
 Reference value :  8.00151e-06
 Reference value :  8.00214e-06
 Reference value :  8.00284e-06
 Reference value :  8.00357e-06
 Reference value :  8.00433e-06
 Reference value :  8.00517e-06
 Reference value :  8.00609e-06
 Reference value :  8.00702e-06
 Reference value :  8.00803e-06
 Reference value :  8.00897e-06
 Reference value :  8.00995e-06
 Reference value :  8.01097e-06
 Reference value :  8.01231e-06
 Reference value :  8.01413e-06
 Reference value :  8.01685e-06
 Reference value :  8.02022e-06
 Reference value :  8.02271e-06
 Reference value :  8.02546e-06
 Reference value :  8.02813e-06
 Reference value :  8.03121e-06
 Reference value :  8.03586e-06
 Reference value :  8.04193e-06
 Reference value :  8.05211e-06
 Reference value :  8.06822e-06
 Reference value :  8.09503e-06
 Reference value :  8.14682e-06
 Reference value :  8.24911e-06
 Reference value :  8.25010e-06
 Reference value :  8.25011e-06
 Reference value :  8.25013e-06
 Reference value :  8.25017e-06
 Reference value :  8.25020e-06
 Reference value :  8.25020e-06
 Reference value :  8.25020e-06
 Reference value :  8.25021e-06
 Reference value :  8.25021e-06
 Reference value :  8.25022e-06
 Reference value :  8.25025e-06
 Reference value :  8.25030e-06
 Reference value :  8.25039e-06
 Reference value :  8.25059e-06
 Reference value :  8.25097e-06
 Reference value :  8.25154e-06
 Reference value :  8.25221e-06
 Reference value :  8.25295e-06
 Reference value :  8.25379e-06
 Reference value :  8.25485e-06
 Reference value :  8.25616e-06
 Reference value :  8.25753e-06
 Reference value :  8.25911e-06
 Reference value :  8.26083e-06
 Reference value :  8.26340e-06
 Reference value :  8.26637e-06
 Reference value :  8.27042e-06
 Reference value :  8.27625e-06
 Reference value :  8.28791e-06
 Reference value :  8.31124e-06
 Reference value :  8.35744e-06
 Reference value :  8.44985e-06
 Reference value :  8.50000e-06
 Reference value :  8.50000e-06
 Reference value :  8.50000e-06
 Reference value :  8.50000e-06
 Reference value :  8.50000e-06
 Reference value :  8.50000e-06
 Reference value :  8.50000e-06
 Reference value :  8.50000e-06
 Reference value :  8.50000e-06
 Reference value :  8.50001e-06
 Reference value :  8.50001e-06
 Reference value :  8.50002e-06
 Reference value :  8.50004e-06
 Reference value :  8.50008e-06
 Reference value :  8.50010e-06
 Reference value :  8.50010e-06
 Reference value :  8.50011e-06
 Reference value :  8.50012e-06
 Reference value :  8.50014e-06
 Reference value :  8.50018e-06
 Reference value :  8.50027e-06
 Reference value :  8.50043e-06
 Reference value :  8.50077e-06
 Reference value :  8.50132e-06
 Reference value :  8.50220e-06
 Reference value :  8.50303e-06
 Reference value :  8.50371e-06
 Reference value :  8.50456e-06
 Reference value :  8.50538e-06
 Reference value :  8.50639e-06
 Reference value :  8.50750e-06
 Reference value :  8.50873e-06
 Reference value :  8.51058e-06
 Reference value :  8.51264e-06
 Reference value :  8.51428e-06
 Reference value :  8.51607e-06
 Reference value :  8.51842e-06
 Reference value :  8.52143e-06
 Reference value :  8.52436e-06
 Reference value :  8.53023e-06
 Reference value :  8.53671e-06
 Reference value :  8.54140e-06
 Reference value :  8.54521e-06
 Reference value :  8.54886e-06
 Reference value :  8.55245e-06
 Reference value :  8.55530e-06
 Reference value :  8.55807e-06
 Reference value :  8.56036e-06
 Reference value :  8.56213e-06
 Reference value :  8.56386e-06
 Reference value :  8.56547e-06
 Reference value :  8.56738e-06
 Reference value :  8.57050e-06
 Reference value :  8.57416e-06
 Reference value :  8.57793e-06
 Reference value :  8.58302e-06
 Reference value :  8.58871e-06
 Reference value :  8.59842e-06
 Reference value :  8.60897e-06
 Reference value :  8.62234e-06
 Reference value :  8.63794e-06
 Reference value :  8.66234e-06
 Reference value :  8.68537e-06
 Reference value :  8.71961e-06
 Reference value :  8.75010e-06
 Reference value :  8.75011e-06
 Reference value :  8.75013e-06
 Reference value :  8.75017e-06
 Reference value :  8.75020e-06
 Reference value :  8.75020e-06
 Reference value :  8.75020e-06
 Reference value :  8.75021e-06
 Reference value :  8.75021e-06
 Reference value :  8.75022e-06
 Reference value :  8.75025e-06
 Reference value :  8.75030e-06
 Reference value :  8.75039e-06
 Reference value :  8.75059e-06
 Reference value :  8.75097e-06
 Reference value :  8.75155e-06
 Reference value :  8.75222e-06
 Reference value :  8.75299e-06
 Reference value :  8.75378e-06
 Reference value :  8.75491e-06
 Reference value :  8.75586e-06
 Reference value :  8.75693e-06
 Reference value :  8.75799e-06
 Reference value :  8.75907e-06
 Reference value :  8.76073e-06
 Reference value :  8.76263e-06
 Reference value :  8.76526e-06
 Reference value :  8.76894e-06
 Reference value :  8.77402e-06
 Reference value :  8.78418e-06
 Reference value :  8.80163e-06
 Reference value :  8.83232e-06
 Reference value :  8.89305e-06
 Reference value :  8.96728e-06
 Reference value :  9.00000e-06
 Reference value :  9.00001e-06
 Reference value :  9.00003e-06
 Reference value :  9.00007e-06
 Reference value :  9.00010e-06
 Reference value :  9.00010e-06
 Reference value :  9.00011e-06
 Reference value :  9.00013e-06
 Reference value :  9.00016e-06
 Reference value :  9.00023e-06
 Reference value :  9.00037e-06
 Reference value :  9.00056e-06
 Reference value :  9.00094e-06
 Reference value :  9.00153e-06
 Reference value :  9.00216e-06
 Reference value :  9.00285e-06
 Reference value :  9.00368e-06
 Reference value :  9.00443e-06
 Reference value :  9.00532e-06
 Reference value :  9.00626e-06
 Reference value :  9.00724e-06
 Reference value :  9.00864e-06
 Reference value :  9.01003e-06
 Reference value :  9.01258e-06
 Reference value :  9.01560e-06
 Reference value :  9.01777e-06
 Reference value :  9.02026e-06
 Reference value :  9.02270e-06
 Reference value :  9.02524e-06
 Reference value :  9.02840e-06
 Reference value :  9.03309e-06
 Reference value :  9.03967e-06
 Reference value :  9.04918e-06
 Reference value :  9.06821e-06
 Reference value :  9.09582e-06
 Reference value :  9.14669e-06
 Reference value :  9.24552e-06
 Reference value :  9.25010e-06
 Reference value :  9.25011e-06
 Reference value :  9.25013e-06
 Reference value :  9.25017e-06
 Reference value :  9.25020e-06
 Reference value :  9.25020e-06
 Reference value :  9.25020e-06
 Reference value :  9.25021e-06
 Reference value :  9.25021e-06
 Reference value :  9.25022e-06
 Reference value :  9.25025e-06
 Reference value :  9.25030e-06
 Reference value :  9.25040e-06
 Reference value :  9.25059e-06
 Reference value :  9.25098e-06
 Reference value :  9.25157e-06
 Reference value :  9.25224e-06
 Reference value :  9.25299e-06
 Reference value :  9.25383e-06
 Reference value :  9.25492e-06
 Reference value :  9.25581e-06
 Reference value :  9.25686e-06
 Reference value :  9.25775e-06
 Reference value :  9.25872e-06
 Reference value :  9.25985e-06
 Reference value :  9.26110e-06
 Reference value :  9.26360e-06
 Reference value :  9.26637e-06
 Reference value :  9.27079e-06
 Reference value :  9.27662e-06
 Reference value :  9.28829e-06
 Reference value :  9.31162e-06
 Reference value :  9.35829e-06
 Reference value :  9.43603e-06
 Reference value :  9.49143e-06
 Reference value :  9.50000e-06
 Reference value :  9.50001e-06
 Reference value :  9.50003e-06
 Reference value :  9.50007e-06
 Reference value :  9.50010e-06
 Reference value :  9.50010e-06
 Reference value :  9.50011e-06
 Reference value :  9.50013e-06
 Reference value :  9.50016e-06
 Reference value :  9.50023e-06
 Reference value :  9.50037e-06
 Reference value :  9.50056e-06
 Reference value :  9.50094e-06
 Reference value :  9.50154e-06
 Reference value :  9.50216e-06
 Reference value :  9.50285e-06
 Reference value :  9.50356e-06
 Reference value :  9.50431e-06
 Reference value :  9.50518e-06
 Reference value :  9.50616e-06
 Reference value :  9.50709e-06
 Reference value :  9.50796e-06
 Reference value :  9.50884e-06
 Reference value :  9.50981e-06
 Reference value :  9.51079e-06
 Reference value :  9.51224e-06
 Reference value :  9.51370e-06
 Reference value :  9.51575e-06
 Reference value :  9.51794e-06
 Reference value :  9.52015e-06
 Reference value :  9.52236e-06
 Reference value :  9.52462e-06
 Reference value :  9.52626e-06
 Reference value :  9.52781e-06
 Reference value :  9.52938e-06
 Reference value :  9.53101e-06
 Reference value :  9.53282e-06
 Reference value :  9.53529e-06
 Reference value :  9.53799e-06
 Reference value :  9.54131e-06
 Reference value :  9.54471e-06
 Reference value :  9.54774e-06
 Reference value :  9.55086e-06
 Reference value :  9.55433e-06
 Reference value :  9.55786e-06
 Reference value :  9.56372e-06
 Reference value :  9.57408e-06
 Reference value :  9.58859e-06
 Reference value :  9.60548e-06
 Reference value :  9.62477e-06
 Reference value :  9.64937e-06
 Reference value :  9.69856e-06
 Reference value :  9.75010e-06
 Reference value :  9.75011e-06
 Reference value :  9.75013e-06
 Reference value :  9.75017e-06
 Reference value :  9.75020e-06
 Reference value :  9.75020e-06
 Reference value :  9.75020e-06
 Reference value :  9.75021e-06
 Reference value :  9.75021e-06
 Reference value :  9.75022e-06
 Reference value :  9.75025e-06
 Reference value :  9.75030e-06
 Reference value :  9.75039e-06
 Reference value :  9.75059e-06
 Reference value :  9.75093e-06
 Reference value :  9.75155e-06
 Reference value :  9.75217e-06
 Reference value :  9.75295e-06
 Reference value :  9.75376e-06
 Reference value :  9.75484e-06
 Reference value :  9.75579e-06
 Reference value :  9.75687e-06
 Reference value :  9.75799e-06
 Reference value :  9.75906e-06
 Reference value :  9.76084e-06
 Reference value :  9.76260e-06
 Reference value :  9.76540e-06
 Reference value :  9.76896e-06
 Reference value :  9.77426e-06
 Reference value :  9.78488e-06
 Reference value :  9.80302e-06
 Reference value :  9.83610e-06
 Reference value :  9.90227e-06
 Reference value :  1.00000e-05
 Reference value :  1.00000e-05
 Reference value :  1.00000e-05
 Reference value :  1.00001e-05
 Reference value :  1.00001e-05
 Reference value :  1.00001e-05
 Reference value :  1.00001e-05
 Reference value :  1.00001e-05
 Reference value :  1.00002e-05
 Reference value :  1.00002e-05
 Reference value :  1.00004e-05
 Reference value :  1.00006e-05
 Reference value :  1.00009e-05
 Reference value :  1.00016e-05
 Reference value :  1.00022e-05
 Reference value :  1.00029e-05
 Reference value :  1.00036e-05
 Reference value :  1.00044e-05
 Reference value :  1.00052e-05
 Reference value :  1.00062e-05
 Reference value :  1.00072e-05
 Reference value :  1.00085e-05
 Reference value :  1.00099e-05
 Reference value :  1.00115e-05
 Reference value :  1.00130e-05
 Reference value :  1.00146e-05
 Reference value :  1.00166e-05
 Reference value :  1.00185e-05
 Reference value :  1.00208e-05
 Reference value :  1.00229e-05
 Reference value :  1.00273e-05
 Reference value :  1.00359e-05
 Reference value :  1.00492e-05
 Reference value :  1.00759e-05
 Reference value :  1.01292e-05
 Reference value :  1.02360e-05
 Reference value :  1.02501e-05
 Reference value :  1.02501e-05
 Reference value :  1.02501e-05
 Reference value :  1.02502e-05
 Reference value :  1.02502e-05
 Reference value :  1.02502e-05
 Reference value :  1.02502e-05
 Reference value :  1.02502e-05
 Reference value :  1.02502e-05
 Reference value :  1.02502e-05
 Reference value :  1.02502e-05
 Reference value :  1.02503e-05
 Reference value :  1.02504e-05
 Reference value :  1.02506e-05
 Reference value :  1.02509e-05
 Reference value :  1.02515e-05
 Reference value :  1.02522e-05
 Reference value :  1.02529e-05
 Reference value :  1.02538e-05
 Reference value :  1.02548e-05
 Reference value :  1.02558e-05
 Reference value :  1.02568e-05
 Reference value :  1.02578e-05
 Reference value :  1.02588e-05
 Reference value :  1.02599e-05
 Reference value :  1.02612e-05
 Reference value :  1.02637e-05
 Reference value :  1.02665e-05
 Reference value :  1.02710e-05
 Reference value :  1.02771e-05
 Reference value :  1.02892e-05
 Reference value :  1.03135e-05
 Reference value :  1.03620e-05
 Reference value :  1.04590e-05
 Reference value :  1.05000e-05
 Reference value :  1.05000e-05
 Reference value :  1.05000e-05
 Reference value :  1.05001e-05
 Reference value :  1.05001e-05
 Reference value :  1.05001e-05
 Reference value :  1.05001e-05
 Reference value :  1.05001e-05
 Reference value :  1.05002e-05
 Reference value :  1.05002e-05
 Reference value :  1.05004e-05
 Reference value :  1.05006e-05
 Reference value :  1.05009e-05
 Reference value :  1.05016e-05
 Reference value :  1.05022e-05
 Reference value :  1.05029e-05
 Reference value :  1.05036e-05
 Reference value :  1.05044e-05
 Reference value :  1.05052e-05
 Reference value :  1.05062e-05
 Reference value :  1.05072e-05
 Reference value :  1.05082e-05
 Reference value :  1.05092e-05
 Reference value :  1.05103e-05
 Reference value :  1.05113e-05
 Reference value :  1.05128e-05
 Reference value :  1.05146e-05
 Reference value :  1.05176e-05
 Reference value :  1.05204e-05
 Reference value :  1.05228e-05
 Reference value :  1.05249e-05
 Reference value :  1.05270e-05
 Reference value :  1.05291e-05
 Reference value :  1.05312e-05
 Reference value :  1.05335e-05
 Reference value :  1.05361e-05
 Reference value :  1.05390e-05
 Reference value :  1.05435e-05
 Reference value :  1.05494e-05
 Reference value :  1.05588e-05
 Reference value :  1.05734e-05
 Reference value :  1.05966e-05
 Reference value :  1.06310e-05
 Reference value :  1.06946e-05
 Reference value :  1.07501e-05
 Reference value :  1.07501e-05
 Reference value :  1.07501e-05
 Reference value :  1.07502e-05
 Reference value :  1.07502e-05
 Reference value :  1.07502e-05
 Reference value :  1.07502e-05
 Reference value :  1.07502e-05
 Reference value :  1.07502e-05
 Reference value :  1.07502e-05
 Reference value :  1.07502e-05
 Reference value :  1.07503e-05
 Reference value :  1.07504e-05
 Reference value :  1.07506e-05
 Reference value :  1.07509e-05
 Reference value :  1.07515e-05
 Reference value :  1.07522e-05
 Reference value :  1.07529e-05
 Reference value :  1.07538e-05
 Reference value :  1.07548e-05
 Reference value :  1.07558e-05
 Reference value :  1.07569e-05
 Reference value :  1.07580e-05
 Reference value :  1.07591e-05
 Reference value :  1.07608e-05
 Reference value :  1.07626e-05
 Reference value :  1.07654e-05
 Reference value :  1.07690e-05
 Reference value :  1.07743e-05
 Reference value :  1.07849e-05
 Reference value :  1.08032e-05
 Reference value :  1.08365e-05
 Reference value :  1.09031e-05
 Reference value :  1.09917e-05
 Reference value :  1.10000e-05
 Reference value :  1.10000e-05
 Reference value :  1.10000e-05
 Reference value :  1.10001e-05
 Reference value :  1.10001e-05
 Reference value :  1.10001e-05
 Reference value :  1.10001e-05
 Reference value :  1.10001e-05
 Reference value :  1.10002e-05
 Reference value :  1.10002e-05
 Reference value :  1.10004e-05
 Reference value :  1.10006e-05
 Reference value :  1.10009e-05
 Reference value :  1.10016e-05
 Reference value :  1.10022e-05
 Reference value :  1.10029e-05
 Reference value :  1.10036e-05
 Reference value :  1.10044e-05
 Reference value :  1.10052e-05
 Reference value :  1.10062e-05
 Reference value :  1.10072e-05
 Reference value :  1.10085e-05
 Reference value :  1.10099e-05
 Reference value :  1.10115e-05
 Reference value :  1.10130e-05
 Reference value :  1.10146e-05
 Reference value :  1.10166e-05
 Reference value :  1.10183e-05
 Reference value :  1.10203e-05
 Reference value :  1.10224e-05
 Reference value :  1.10266e-05
 Reference value :  1.10348e-05
 Reference value :  1.10484e-05
 Reference value :  1.10758e-05
 Reference value :  1.11304e-05
 Reference value :  1.12397e-05
 Reference value :  1.12501e-05
 Reference value :  1.12501e-05
 Reference value :  1.12501e-05
 Reference value :  1.12502e-05
 Reference value :  1.12502e-05
 Reference value :  1.12502e-05
 Reference value :  1.12502e-05
 Reference value :  1.12502e-05
 Reference value :  1.12502e-05
 Reference value :  1.12502e-05
 Reference value :  1.12502e-05
 Reference value :  1.12503e-05
 Reference value :  1.12504e-05
 Reference value :  1.12506e-05
 Reference value :  1.12509e-05
 Reference value :  1.12515e-05
 Reference value :  1.12522e-05
 Reference value :  1.12529e-05
 Reference value :  1.12538e-05
 Reference value :  1.12548e-05
 Reference value :  1.12558e-05
 Reference value :  1.12568e-05
 Reference value :  1.12578e-05
 Reference value :  1.12588e-05
 Reference value :  1.12599e-05
 Reference value :  1.12612e-05
 Reference value :  1.12637e-05
 Reference value :  1.12665e-05
 Reference value :  1.12711e-05
 Reference value :  1.12772e-05
 Reference value :  1.12893e-05
 Reference value :  1.13137e-05
 Reference value :  1.13624e-05
 Reference value :  1.14599e-05
 Reference value :  1.15000e-05
 Reference value :  1.15000e-05
 Reference value :  1.15000e-05
 Reference value :  1.15001e-05
 Reference value :  1.15001e-05
 Reference value :  1.15001e-05
 Reference value :  1.15001e-05
 Reference value :  1.15001e-05
 Reference value :  1.15002e-05
 Reference value :  1.15002e-05
 Reference value :  1.15004e-05
 Reference value :  1.15006e-05
 Reference value :  1.15009e-05
 Reference value :  1.15016e-05
 Reference value :  1.15022e-05
 Reference value :  1.15029e-05
 Reference value :  1.15036e-05
 Reference value :  1.15044e-05
 Reference value :  1.15052e-05
 Reference value :  1.15061e-05
 Reference value :  1.15071e-05
 Reference value :  1.15081e-05
 Reference value :  1.15092e-05
 Reference value :  1.15102e-05
 Reference value :  1.15113e-05
 Reference value :  1.15127e-05
 Reference value :  1.15145e-05
 Reference value :  1.15175e-05
 Reference value :  1.15203e-05
 Reference value :  1.15227e-05
 Reference value :  1.15246e-05
 Reference value :  1.15264e-05
 Reference value :  1.15284e-05
 Reference value :  1.15303e-05
 Reference value :  1.15325e-05
 Reference value :  1.15349e-05
 Reference value :  1.15382e-05
 Reference value :  1.15422e-05
 Reference value :  1.15501e-05
 Reference value :  1.15623e-05
 Reference value :  1.15824e-05
 Reference value :  1.16117e-05
 Reference value :  1.16702e-05
 Reference value :  1.17238e-05
 Reference value :  1.17501e-05
 Reference value :  1.17501e-05
 Reference value :  1.17501e-05
 Reference value :  1.17502e-05
 Reference value :  1.17502e-05
 Reference value :  1.17502e-05
 Reference value :  1.17502e-05
 Reference value :  1.17502e-05
 Reference value :  1.17502e-05
 Reference value :  1.17502e-05
 Reference value :  1.17502e-05
 Reference value :  1.17503e-05
 Reference value :  1.17504e-05
 Reference value :  1.17506e-05
 Reference value :  1.17509e-05
 Reference value :  1.17515e-05
 Reference value :  1.17522e-05
 Reference value :  1.17529e-05
 Reference value :  1.17538e-05
 Reference value :  1.17548e-05
 Reference value :  1.17558e-05
 Reference value :  1.17569e-05
 Reference value :  1.17580e-05
 Reference value :  1.17590e-05
 Reference value :  1.17608e-05
 Reference value :  1.17626e-05
 Reference value :  1.17654e-05
 Reference value :  1.17689e-05
 Reference value :  1.17742e-05
 Reference value :  1.17848e-05
 Reference value :  1.18031e-05
 Reference value :  1.18365e-05
 Reference value :  1.19034e-05
 Reference value :  1.20000e-05
 Reference value :  1.20000e-05
 Reference value :  1.20000e-05
 Reference value :  1.20001e-05
 Reference value :  1.20001e-05
 Reference value :  1.20001e-05
 Reference value :  1.20001e-05
 Reference value :  1.20001e-05
 Reference value :  1.20002e-05
 Reference value :  1.20002e-05
 Reference value :  1.20004e-05
 Reference value :  1.20006e-05
 Reference value :  1.20009e-05
 Reference value :  1.20016e-05
 Reference value :  1.20022e-05
 Reference value :  1.20029e-05
 Reference value :  1.20036e-05
 Reference value :  1.20044e-05
 Reference value :  1.20052e-05
 Reference value :  1.20061e-05
 Reference value :  1.20071e-05
 Reference value :  1.20085e-05
 Reference value :  1.20098e-05
 Reference value :  1.20114e-05
 Reference value :  1.20129e-05
 Reference value :  1.20144e-05
 Reference value :  1.20160e-05
 Reference value :  1.20177e-05
 Reference value :  1.20194e-05
 Reference value :  1.20214e-05
 Reference value :  1.20252e-05
 Reference value :  1.20329e-05
 Reference value :  1.20458e-05
 Reference value :  1.20716e-05
 Reference value :  1.21234e-05
 Reference value :  1.22268e-05
 Reference value :  1.22501e-05
 Reference value :  1.22501e-05
 Reference value :  1.22501e-05
 Reference value :  1.22502e-05
 Reference value :  1.22502e-05
 Reference value :  1.22502e-05
 Reference value :  1.22502e-05
 Reference value :  1.22502e-05
 Reference value :  1.22502e-05
 Reference value :  1.22502e-05
 Reference value :  1.22502e-05
 Reference value :  1.22503e-05
 Reference value :  1.22504e-05
 Reference value :  1.22506e-05
 Reference value :  1.22509e-05
 Reference value :  1.22515e-05
 Reference value :  1.22522e-05
 Reference value :  1.22529e-05
 Reference value :  1.22538e-05
 Reference value :  1.22548e-05
 Reference value :  1.22557e-05
 Reference value :  1.22568e-05
 Reference value :  1.22577e-05
 Reference value :  1.22587e-05
 Reference value :  1.22599e-05
 Reference value :  1.22611e-05
 Reference value :  1.22637e-05
 Reference value :  1.22665e-05
 Reference value :  1.22710e-05
 Reference value :  1.22770e-05
 Reference value :  1.22890e-05
 Reference value :  1.23130e-05
 Reference value :  1.23610e-05
 Reference value :  1.24570e-05
 Reference value :  1.25000e-05
 Reference value :  1.25000e-05
 Reference value :  1.25000e-05
 Reference value :  1.25001e-05
 Reference value :  1.25001e-05
 Reference value :  1.25001e-05
 Reference value :  1.25001e-05
 Reference value :  1.25001e-05
 Reference value :  1.25002e-05
 Reference value :  1.25002e-05
 Reference value :  1.25004e-05
 Reference value :  1.25006e-05
 Reference value :  1.25009e-05
 Reference value :  1.25016e-05
 Reference value :  1.25022e-05
 Reference value :  1.25029e-05
 Reference value :  1.25036e-05
 Reference value :  1.25044e-05
 Reference value :  1.25052e-05
 Reference value :  1.25061e-05
 Reference value :  1.25072e-05
 Reference value :  1.25082e-05
 Reference value :  1.25091e-05
 Reference value :  1.25101e-05
 Reference value :  1.25112e-05
 Reference value :  1.25125e-05
 Reference value :  1.25144e-05
 Reference value :  1.25173e-05
 Reference value :  1.25202e-05
 Reference value :  1.25225e-05
 Reference value :  1.25245e-05
 Reference value :  1.25263e-05
 Reference value :  1.25283e-05
 Reference value :  1.25302e-05
 Reference value :  1.25323e-05
 Reference value :  1.25346e-05
 Reference value :  1.25380e-05
 Reference value :  1.25418e-05
 Reference value :  1.25494e-05
 Reference value :  1.25607e-05
 Reference value :  1.25727e-05
 Reference value :  1.25839e-05
 Reference value :  1.25945e-05
 Reference value :  1.26025e-05
 Reference value :  1.26100e-05
 Reference value :  1.26171e-05
 Reference value :  1.26248e-05
 Reference value :  1.26328e-05
 Reference value :  1.26411e-05
 Reference value :  1.26562e-05
 Reference value :  1.26719e-05
 Reference value :  1.26964e-05
 Reference value :  1.27236e-05
 Reference value :  1.27498e-05
 Reference value :  1.27501e-05
 Reference value :  1.27501e-05
 Reference value :  1.27501e-05
 Reference value :  1.27502e-05
 Reference value :  1.27502e-05
 Reference value :  1.27502e-05
 Reference value :  1.27502e-05
 Reference value :  1.27502e-05
 Reference value :  1.27502e-05
 Reference value :  1.27502e-05
 Reference value :  1.27502e-05
 Reference value :  1.27503e-05
 Reference value :  1.27504e-05
 Reference value :  1.27506e-05
 Reference value :  1.27509e-05
 Reference value :  1.27515e-05
 Reference value :  1.27522e-05
 Reference value :  1.27529e-05
 Reference value :  1.27537e-05
 Reference value :  1.27548e-05
 Reference value :  1.27558e-05
 Reference value :  1.27569e-05
 Reference value :  1.27580e-05
 Reference value :  1.27590e-05
 Reference value :  1.27608e-05
 Reference value :  1.27625e-05
 Reference value :  1.27654e-05
 Reference value :  1.27689e-05
 Reference value :  1.27741e-05
 Reference value :  1.27846e-05
 Reference value :  1.28031e-05
 Reference value :  1.28367e-05
 Reference value :  1.29039e-05
 Reference value :  1.30000e-05
 Reference value :  1.30000e-05
 Reference value :  1.30000e-05
 Reference value :  1.30001e-05
 Reference value :  1.30001e-05
 Reference value :  1.30001e-05
 Reference value :  1.30001e-05
 Reference value :  1.30001e-05
 Reference value :  1.30002e-05
 Reference value :  1.30002e-05
 Reference value :  1.30004e-05
 Reference value :  1.30006e-05
 Reference value :  1.30009e-05
 Reference value :  1.30016e-05
 Reference value :  1.30022e-05
 Reference value :  1.30029e-05
 Reference value :  1.30036e-05
 Reference value :  1.30044e-05
 Reference value :  1.30052e-05
 Reference value :  1.30061e-05
 Reference value :  1.30071e-05
 Reference value :  1.30085e-05
 Reference value :  1.30098e-05
 Reference value :  1.30113e-05
 Reference value :  1.30128e-05
 Reference value :  1.30144e-05
 Reference value :  1.30158e-05
 Reference value :  1.30174e-05
 Reference value :  1.30190e-05
 Reference value :  1.30209e-05
 Reference value :  1.30246e-05
 Reference value :  1.30305e-05
 Reference value :  1.30424e-05
 Reference value :  1.30662e-05
 Reference value :  1.31138e-05
 Reference value :  1.32089e-05
 Reference value :  1.32501e-05
 Reference value :  1.32501e-05
 Reference value :  1.32501e-05
 Reference value :  1.32502e-05
 Reference value :  1.32502e-05
 Reference value :  1.32502e-05
 Reference value :  1.32502e-05
 Reference value :  1.32502e-05
 Reference value :  1.32502e-05
 Reference value :  1.32502e-05
 Reference value :  1.32502e-05
 Reference value :  1.32503e-05
 Reference value :  1.32504e-05
 Reference value :  1.32506e-05
 Reference value :  1.32509e-05
 Reference value :  1.32515e-05
 Reference value :  1.32522e-05
 Reference value :  1.32529e-05
 Reference value :  1.32537e-05
 Reference value :  1.32548e-05
 Reference value :  1.32557e-05
 Reference value :  1.32568e-05
 Reference value :  1.32577e-05
 Reference value :  1.32587e-05
 Reference value :  1.32599e-05
 Reference value :  1.32611e-05
 Reference value :  1.32637e-05
 Reference value :  1.32664e-05
 Reference value :  1.32709e-05
 Reference value :  1.32769e-05
 Reference value :  1.32888e-05
 Reference value :  1.33126e-05
 Reference value :  1.33603e-05
 Reference value :  1.34556e-05
 Reference value :  1.35000e-05
 Reference value :  1.35000e-05
 Reference value :  1.35000e-05
 Reference value :  1.35001e-05
 Reference value :  1.35001e-05
 Reference value :  1.35001e-05
 Reference value :  1.35001e-05
 Reference value :  1.35001e-05
 Reference value :  1.35002e-05
 Reference value :  1.35002e-05
 Reference value :  1.35004e-05
 Reference value :  1.35006e-05
 Reference value :  1.35009e-05
 Reference value :  1.35016e-05
 Reference value :  1.35022e-05
 Reference value :  1.35029e-05
 Reference value :  1.35036e-05
 Reference value :  1.35044e-05
 Reference value :  1.35053e-05
 Reference value :  1.35062e-05
 Reference value :  1.35072e-05
 Reference value :  1.35082e-05
 Reference value :  1.35091e-05
 Reference value :  1.35101e-05
 Reference value :  1.35112e-05
 Reference value :  1.35125e-05
 Reference value :  1.35144e-05
 Reference value :  1.35173e-05
 Reference value :  1.35203e-05
 Reference value :  1.35227e-05
 Reference value :  1.35246e-05
 Reference value :  1.35264e-05
 Reference value :  1.35284e-05
 Reference value :  1.35303e-05
 Reference value :  1.35328e-05
 Reference value :  1.35350e-05
 Reference value :  1.35385e-05
 Reference value :  1.35429e-05
 Reference value :  1.35491e-05
 Reference value :  1.35547e-05
 Reference value :  1.35597e-05
 Reference value :  1.35665e-05
 Reference value :  1.35734e-05
 Reference value :  1.35791e-05
 Reference value :  1.35850e-05
 Reference value :  1.35916e-05
 Reference value :  1.35989e-05
 Reference value :  1.36055e-05
 Reference value :  1.36135e-05
 Reference value :  1.36260e-05
 Reference value :  1.36469e-05
 Reference value :  1.36782e-05
 Reference value :  1.37362e-05
 Reference value :  1.37501e-05
 Reference value :  1.37501e-05
 Reference value :  1.37501e-05
 Reference value :  1.37502e-05
 Reference value :  1.37502e-05
 Reference value :  1.37502e-05
 Reference value :  1.37502e-05
 Reference value :  1.37502e-05
 Reference value :  1.37502e-05
 Reference value :  1.37502e-05
 Reference value :  1.37502e-05
 Reference value :  1.37503e-05
 Reference value :  1.37504e-05
 Reference value :  1.37506e-05
 Reference value :  1.37509e-05
 Reference value :  1.37515e-05
 Reference value :  1.37522e-05
 Reference value :  1.37529e-05
 Reference value :  1.37538e-05
 Reference value :  1.37548e-05
 Reference value :  1.37557e-05
 Reference value :  1.37567e-05
 Reference value :  1.37577e-05
 Reference value :  1.37587e-05
 Reference value :  1.37604e-05
 Reference value :  1.37620e-05
 Reference value :  1.37649e-05
 Reference value :  1.37680e-05
 Reference value :  1.37730e-05
 Reference value :  1.37823e-05
 Reference value :  1.38008e-05
 Reference value :  1.38378e-05
 Reference value :  1.39118e-05
 Reference value :  1.40000e-05
 Reference value :  1.40000e-05
 Reference value :  1.40000e-05
 Reference value :  1.40001e-05
 Reference value :  1.40001e-05
 Reference value :  1.40001e-05
 Reference value :  1.40001e-05
 Reference value :  1.40001e-05
 Reference value :  1.40002e-05
 Reference value :  1.40002e-05
 Reference value :  1.40004e-05
 Reference value :  1.40006e-05
 Reference value :  1.40009e-05
 Reference value :  1.40016e-05
 Reference value :  1.40022e-05
 Reference value :  1.40029e-05
 Reference value :  1.40036e-05
 Reference value :  1.40043e-05
 Reference value :  1.40052e-05
 Reference value :  1.40061e-05
 Reference value :  1.40071e-05
 Reference value :  1.40084e-05
 Reference value :  1.40098e-05
 Reference value :  1.40114e-05
 Reference value :  1.40129e-05
 Reference value :  1.40145e-05
 Reference value :  1.40159e-05
 Reference value :  1.40175e-05
 Reference value :  1.40192e-05
 Reference value :  1.40211e-05
 Reference value :  1.40249e-05
 Reference value :  1.40303e-05
 Reference value :  1.40412e-05
 Reference value :  1.40631e-05
 Reference value :  1.41050e-05
 Reference value :  1.41887e-05
 Reference value :  1.42501e-05
 Reference value :  1.42501e-05
 Reference value :  1.42501e-05
 Reference value :  1.42502e-05
 Reference value :  1.42502e-05
 Reference value :  1.42502e-05
 Reference value :  1.42502e-05
 Reference value :  1.42502e-05
 Reference value :  1.42502e-05
 Reference value :  1.42502e-05
 Reference value :  1.42502e-05
 Reference value :  1.42503e-05
 Reference value :  1.42504e-05
 Reference value :  1.42506e-05
 Reference value :  1.42509e-05
 Reference value :  1.42515e-05
 Reference value :  1.42522e-05
 Reference value :  1.42529e-05
 Reference value :  1.42537e-05
 Reference value :  1.42548e-05
 Reference value :  1.42557e-05
 Reference value :  1.42568e-05
 Reference value :  1.42578e-05
 Reference value :  1.42588e-05
 Reference value :  1.42599e-05
 Reference value :  1.42612e-05
 Reference value :  1.42625e-05
 Reference value :  1.42642e-05
 Reference value :  1.42665e-05
 Reference value :  1.42693e-05
 Reference value :  1.42730e-05
 Reference value :  1.42782e-05
 Reference value :  1.42887e-05
 Reference value :  1.43077e-05
 Reference value :  1.43457e-05
 Reference value :  1.44217e-05
 Reference value :  1.45000e-05
 Reference value :  1.45000e-05
 Reference value :  1.45000e-05
 Reference value :  1.45001e-05
 Reference value :  1.45001e-05
 Reference value :  1.45001e-05
 Reference value :  1.45001e-05
 Reference value :  1.45001e-05
 Reference value :  1.45002e-05
 Reference value :  1.45002e-05
 Reference value :  1.45004e-05
 Reference value :  1.45006e-05
 Reference value :  1.45009e-05
 Reference value :  1.45016e-05
 Reference value :  1.45022e-05
 Reference value :  1.45029e-05
 Reference value :  1.45036e-05
 Reference value :  1.45044e-05
 Reference value :  1.45052e-05
 Reference value :  1.45061e-05
 Reference value :  1.45071e-05
 Reference value :  1.45079e-05
 Reference value :  1.45088e-05
 Reference value :  1.45098e-05
 Reference value :  1.45108e-05
 Reference value :  1.45121e-05
 Reference value :  1.45139e-05
 Reference value :  1.45157e-05
 Reference value :  1.45175e-05
 Reference value :  1.45196e-05
 Reference value :  1.45214e-05
 Reference value :  1.45233e-05
 Reference value :  1.45247e-05
 Reference value :  1.45260e-05
 Reference value :  1.45274e-05
 Reference value :  1.45288e-05
 Reference value :  1.45302e-05
 Reference value :  1.45318e-05
 Reference value :  1.45340e-05
 Reference value :  1.45366e-05
 Reference value :  1.45405e-05
 Reference value :  1.45454e-05
 Reference value :  1.45503e-05
 Reference value :  1.45548e-05
 Reference value :  1.45612e-05
 Reference value :  1.45653e-05
 Reference value :  1.45698e-05
 Reference value :  1.45751e-05
 Reference value :  1.45809e-05
 Reference value :  1.45918e-05
 Reference value :  1.46057e-05
 Reference value :  1.46274e-05
 Reference value :  1.46622e-05
 Reference value :  1.46952e-05
 Reference value :  1.47501e-05
 Reference value :  1.47501e-05
 Reference value :  1.47501e-05
 Reference value :  1.47502e-05
 Reference value :  1.47502e-05
 Reference value :  1.47502e-05
 Reference value :  1.47502e-05
 Reference value :  1.47502e-05
 Reference value :  1.47502e-05
 Reference value :  1.47502e-05
 Reference value :  1.47502e-05
 Reference value :  1.47503e-05
 Reference value :  1.47504e-05
 Reference value :  1.47506e-05
 Reference value :  1.47509e-05
 Reference value :  1.47515e-05
 Reference value :  1.47522e-05
 Reference value :  1.47529e-05
 Reference value :  1.47537e-05
 Reference value :  1.47548e-05
 Reference value :  1.47557e-05
 Reference value :  1.47568e-05
 Reference value :  1.47579e-05
 Reference value :  1.47589e-05
 Reference value :  1.47607e-05
 Reference value :  1.47624e-05
 Reference value :  1.47652e-05
 Reference value :  1.47687e-05
 Reference value :  1.47739e-05
 Reference value :  1.47842e-05
 Reference value :  1.47992e-05
 Reference value :  1.48165e-05
 Reference value :  1.48325e-05
 Reference value :  1.48491e-05
 Reference value :  1.48683e-05
 Reference value :  1.49068e-05
 Reference value :  1.49716e-05
 Reference value :  1.50000e-05
 Reference value :  1.50000e-05
 Reference value :  1.50000e-05
 Reference value :  1.50001e-05
 Reference value :  1.50001e-05
 Reference value :  1.50001e-05
 Reference value :  1.50001e-05
 Reference value :  1.50001e-05
 Reference value :  1.50002e-05
 Reference value :  1.50002e-05
 Reference value :  1.50004e-05
 Reference value :  1.50006e-05
 Reference value :  1.50009e-05
 Reference value :  1.50016e-05
 Reference value :  1.50022e-05
 Reference value :  1.50029e-05
 Reference value :  1.50036e-05
 Reference value :  1.50043e-05
 Reference value :  1.50052e-05
 Reference value :  1.50061e-05
 Reference value :  1.50070e-05
 Reference value :  1.50084e-05
 Reference value :  1.50097e-05
 Reference value :  1.50112e-05
 Reference value :  1.50125e-05
 Reference value :  1.50139e-05
 Reference value :  1.50153e-05
 Reference value :  1.50169e-05
 Reference value :  1.50185e-05
 Reference value :  1.50203e-05
 Reference value :  1.50239e-05
 Reference value :  1.50311e-05
 Reference value :  1.50442e-05
 Reference value :  1.50705e-05
 Reference value :  1.51230e-05
 Reference value :  1.52081e-05
 Reference value :  1.52501e-05
 Reference value :  1.52501e-05
 Reference value :  1.52501e-05
 Reference value :  1.52502e-05
 Reference value :  1.52502e-05
 Reference value :  1.52502e-05
 Reference value :  1.52502e-05
 Reference value :  1.52502e-05
 Reference value :  1.52502e-05
 Reference value :  1.52502e-05
 Reference value :  1.52502e-05
 Reference value :  1.52503e-05
 Reference value :  1.52504e-05
 Reference value :  1.52506e-05
 Reference value :  1.52509e-05
 Reference value :  1.52515e-05
 Reference value :  1.52522e-05
 Reference value :  1.52529e-05
 Reference value :  1.52537e-05
 Reference value :  1.52548e-05
 Reference value :  1.52557e-05
 Reference value :  1.52568e-05
 Reference value :  1.52578e-05
 Reference value :  1.52588e-05
 Reference value :  1.52599e-05
 Reference value :  1.52612e-05
 Reference value :  1.52626e-05
 Reference value :  1.52643e-05
 Reference value :  1.52668e-05
 Reference value :  1.52695e-05
 Reference value :  1.52735e-05
 Reference value :  1.52788e-05
 Reference value :  1.52896e-05
 Reference value :  1.53111e-05
 Reference value :  1.53541e-05
 Reference value :  1.54401e-05
 Reference value :  1.55000e-05
 Reference value :  1.55009e-05
 Reference value :  1.55026e-05
 Reference value :  1.55035e-05
 Reference value :  1.55043e-05
 Reference value :  1.55052e-05
 Reference value :  1.55062e-05
 Reference value :  1.55071e-05
 Reference value :  1.55079e-05
 Reference value :  1.55088e-05
 Reference value :  1.55097e-05
 Reference value :  1.55107e-05
 Reference value :  1.55120e-05
 Reference value :  1.55137e-05
 Reference value :  1.55162e-05
 Reference value :  1.55178e-05
 Reference value :  1.55197e-05
 Reference value :  1.55213e-05
 Reference value :  1.55231e-05
 Reference value :  1.55245e-05
 Reference value :  1.55259e-05
 Reference value :  1.55276e-05
 Reference value :  1.55292e-05
 Reference value :  1.55307e-05
 Reference value :  1.55326e-05
 Reference value :  1.55349e-05
 Reference value :  1.55367e-05
 Reference value :  1.55386e-05
 Reference value :  1.55410e-05
 Reference value :  1.55436e-05
 Reference value :  1.55473e-05
 Reference value :  1.55543e-05
 Reference value :  1.55636e-05
 Reference value :  1.55810e-05
 Reference value :  1.56086e-05
 Reference value :  1.56549e-05
 Reference value :  1.57349e-05
 Reference value :  1.57501e-05
 Reference value :  1.57501e-05
 Reference value :  1.57501e-05
 Reference value :  1.57502e-05
 Reference value :  1.57502e-05
 Reference value :  1.57502e-05
 Reference value :  1.57502e-05
 Reference value :  1.57502e-05
 Reference value :  1.57502e-05
 Reference value :  1.57502e-05
 Reference value :  1.57502e-05
[...]
 Reference value :  1.74259e-04
 Reference value :  1.74261e-04
 Reference value :  1.74263e-04
 Reference value :  1.74265e-04
 Reference value :  1.74269e-04
 Reference value :  1.74274e-04
 Reference value :  1.74285e-04
 Reference value :  1.74303e-04
 Reference value :  1.74336e-04
 Reference value :  1.74403e-04
 Reference value :  1.74500e-04
 Reference value :  1.74500e-04
 Reference value :  1.74500e-04
 Reference value :  1.74500e-04
 Reference value :  1.74500e-04
 Reference value :  1.74500e-04
 Reference value :  1.74500e-04
 Reference value :  1.74500e-04
 Reference value :  1.74500e-04
 Reference value :  1.74500e-04
 Reference value :  1.74500e-04
 Reference value :  1.74501e-04
 Reference value :  1.74501e-04
 Reference value :  1.74502e-04
 Reference value :  1.74502e-04
 Reference value :  1.74503e-04
 Reference value :  1.74504e-04
 Reference value :  1.74504e-04
 Reference value :  1.74505e-04
 Reference value :  1.74506e-04
 Reference value :  1.74507e-04
 Reference value :  1.74508e-04
 Reference value :  1.74510e-04
 Reference value :  1.74511e-04
 Reference value :  1.74513e-04
 Reference value :  1.74514e-04
 Reference value :  1.74516e-04
 Reference value :  1.74517e-04
 Reference value :  1.74519e-04
 Reference value :  1.74521e-04
 Reference value :  1.74525e-04
 Reference value :  1.74531e-04
 Reference value :  1.74542e-04
 Reference value :  1.74566e-04
 Reference value :  1.74614e-04
 Reference value :  1.74710e-04
 Reference value :  1.74750e-04
 Reference value :  1.74750e-04
 Reference value :  1.74750e-04
 Reference value :  1.74750e-04
 Reference value :  1.74750e-04
 Reference value :  1.74750e-04
 Reference value :  1.74750e-04
 Reference value :  1.74750e-04
 Reference value :  1.74750e-04
 Reference value :  1.74750e-04
 Reference value :  1.74750e-04
 Reference value :  1.74750e-04
 Reference value :  1.74750e-04
 Reference value :  1.74751e-04
 Reference value :  1.74751e-04
 Reference value :  1.74752e-04
 Reference value :  1.74752e-04
 Reference value :  1.74753e-04
 Reference value :  1.74754e-04
 Reference value :  1.74755e-04
 Reference value :  1.74756e-04
 Reference value :  1.74757e-04
 Reference value :  1.74758e-04
 Reference value :  1.74759e-04
 Reference value :  1.74760e-04
 Reference value :  1.74761e-04
 Reference value :  1.74764e-04
 Reference value :  1.74766e-04
 Reference value :  1.74771e-04
 Reference value :  1.74777e-04
 Reference value :  1.74789e-04
 Reference value :  1.74813e-04
 Reference value :  1.74861e-04
 Reference value :  1.74956e-04
 Reference value :  1.75000e-04
 Reference value :  1.75000e-04
 Reference value :  1.75000e-04
 Reference value :  1.75000e-04
 Reference value :  1.75000e-04
 Reference value :  1.75000e-04
 Reference value :  1.75000e-04
 Reference value :  1.75000e-04
 Reference value :  1.75000e-04
 Reference value :  1.75000e-04
 Reference value :  1.75000e-04
 Reference value :  1.75001e-04
 Reference value :  1.75001e-04
 Reference value :  1.75002e-04
 Reference value :  1.75002e-04
 Reference value :  1.75003e-04
 Reference value :  1.75004e-04
 Reference value :  1.75004e-04
 Reference value :  1.75005e-04
 Reference value :  1.75006e-04
 Reference value :  1.75007e-04
 Reference value :  1.75008e-04
 Reference value :  1.75009e-04
 Reference value :  1.75010e-04
 Reference value :  1.75011e-04
 Reference value :  1.75012e-04
 Reference value :  1.75014e-04
 Reference value :  1.75017e-04
 Reference value :  1.75020e-04
 Reference value :  1.75023e-04
 Reference value :  1.75025e-04
 Reference value :  1.75026e-04
 Reference value :  1.75028e-04
 Reference value :  1.75030e-04
 Reference value :  1.75033e-04
 Reference value :  1.75035e-04
 Reference value :  1.75038e-04
 Reference value :  1.75043e-04
 Reference value :  1.75050e-04
 Reference value :  1.75063e-04
 Reference value :  1.75077e-04
 Reference value :  1.75091e-04
 Reference value :  1.75103e-04
 Reference value :  1.75111e-04
 Reference value :  1.75120e-04
 Reference value :  1.75130e-04
 Reference value :  1.75142e-04
 Reference value :  1.75165e-04
 Reference value :  1.75192e-04
 Reference value :  1.75247e-04
 Reference value :  1.75250e-04
 Reference value :  1.75250e-04
 Reference value :  1.75250e-04
 Reference value :  1.75250e-04
 Reference value :  1.75250e-04
 Reference value :  1.75250e-04
 Reference value :  1.75250e-04
 Reference value :  1.75250e-04
 Reference value :  1.75250e-04
 Reference value :  1.75250e-04
 Reference value :  1.75250e-04
 Reference value :  1.75250e-04
 Reference value :  1.75250e-04
 Reference value :  1.75251e-04
 Reference value :  1.75251e-04
 Reference value :  1.75252e-04
 Reference value :  1.75252e-04
 Reference value :  1.75253e-04
 Reference value :  1.75254e-04
 Reference value :  1.75255e-04
 Reference value :  1.75256e-04
 Reference value :  1.75257e-04
 Reference value :  1.75258e-04
 Reference value :  1.75259e-04
 Reference value :  1.75261e-04
 Reference value :  1.75263e-04
 Reference value :  1.75265e-04
 Reference value :  1.75269e-04
 Reference value :  1.75274e-04
 Reference value :  1.75285e-04
 Reference value :  1.75303e-04
 Reference value :  1.75337e-04
 Reference value :  1.75404e-04
 Reference value :  1.75500e-04
 Reference value :  1.75500e-04
 Reference value :  1.75500e-04
 Reference value :  1.75500e-04
 Reference value :  1.75500e-04
 Reference value :  1.75500e-04
 Reference value :  1.75500e-04
 Reference value :  1.75500e-04
 Reference value :  1.75500e-04
 Reference value :  1.75500e-04
 Reference value :  1.75500e-04
 Reference value :  1.75501e-04
 Reference value :  1.75501e-04
 Reference value :  1.75502e-04
 Reference value :  1.75502e-04
 Reference value :  1.75503e-04
 Reference value :  1.75504e-04
 Reference value :  1.75504e-04
 Reference value :  1.75505e-04
 Reference value :  1.75506e-04
 Reference value :  1.75507e-04
 Reference value :  1.75509e-04
 Reference value :  1.75510e-04
 Reference value :  1.75511e-04
 Reference value :  1.75513e-04
 Reference value :  1.75515e-04
 Reference value :  1.75516e-04
 Reference value :  1.75518e-04
 Reference value :  1.75520e-04
 Reference value :  1.75522e-04
 Reference value :  1.75525e-04
 Reference value :  1.75531e-04
 Reference value :  1.75541e-04
 Reference value :  1.75560e-04
 Reference value :  1.75597e-04
 Reference value :  1.75671e-04
 Reference value :  1.75750e-04
 Reference value :  1.75750e-04
 Reference value :  1.75750e-04
 Reference value :  1.75750e-04
 Reference value :  1.75750e-04
 Reference value :  1.75750e-04
 Reference value :  1.75750e-04
 Reference value :  1.75750e-04
 Reference value :  1.75750e-04
 Reference value :  1.75750e-04
 Reference value :  1.75750e-04
 Reference value :  1.75750e-04
 Reference value :  1.75750e-04
 Reference value :  1.75751e-04
 Reference value :  1.75751e-04
 Reference value :  1.75752e-04
 Reference value :  1.75752e-04
 Reference value :  1.75753e-04
 Reference value :  1.75754e-04
 Reference value :  1.75755e-04
 Reference value :  1.75756e-04
 Reference value :  1.75757e-04
 Reference value :  1.75758e-04
 Reference value :  1.75759e-04
 Reference value :  1.75760e-04
 Reference value :  1.75761e-04
 Reference value :  1.75764e-04
 Reference value :  1.75767e-04
 Reference value :  1.75771e-04
 Reference value :  1.75777e-04
 Reference value :  1.75789e-04
 Reference value :  1.75813e-04
 Reference value :  1.75862e-04
 Reference value :  1.75959e-04
 Reference value :  1.76000e-04
 Reference value :  1.76000e-04
 Reference value :  1.76000e-04
 Reference value :  1.76000e-04
 Reference value :  1.76000e-04
 Reference value :  1.76000e-04
 Reference value :  1.76000e-04
 Reference value :  1.76000e-04
 Reference value :  1.76000e-04
 Reference value :  1.76000e-04
 Reference value :  1.76000e-04
 Reference value :  1.76001e-04
 Reference value :  1.76001e-04
 Reference value :  1.76002e-04
 Reference value :  1.76002e-04
 Reference value :  1.76003e-04
 Reference value :  1.76004e-04
 Reference value :  1.76004e-04
 Reference value :  1.76005e-04
 Reference value :  1.76006e-04
 Reference value :  1.76007e-04
 Reference value :  1.76008e-04
 Reference value :  1.76009e-04
 Reference value :  1.76010e-04
 Reference value :  1.76011e-04
 Reference value :  1.76012e-04
 Reference value :  1.76014e-04
 Reference value :  1.76017e-04
 Reference value :  1.76020e-04
 Reference value :  1.76023e-04
 Reference value :  1.76025e-04
 Reference value :  1.76027e-04
 Reference value :  1.76029e-04
 Reference value :  1.76031e-04
 Reference value :  1.76033e-04
 Reference value :  1.76035e-04
 Reference value :  1.76039e-04
 Reference value :  1.76043e-04
 Reference value :  1.76052e-04
 Reference value :  1.76062e-04
 Reference value :  1.76073e-04
 Reference value :  1.76086e-04
 Reference value :  1.76098e-04
 Reference value :  1.76117e-04
 Reference value :  1.76135e-04
 Reference value :  1.76154e-04
 Reference value :  1.76176e-04
 Reference value :  1.76197e-04
 Reference value :  1.76221e-04
 Reference value :  1.76250e-04
 Reference value :  1.76250e-04
 Reference value :  1.76250e-04
 Reference value :  1.76250e-04
 Reference value :  1.76250e-04
 Reference value :  1.76250e-04
 Reference value :  1.76250e-04
 Reference value :  1.76250e-04
 Reference value :  1.76250e-04
 Reference value :  1.76250e-04
 Reference value :  1.76250e-04
 Reference value :  1.76250e-04
 Reference value :  1.76250e-04
 Reference value :  1.76251e-04
 Reference value :  1.76251e-04
 Reference value :  1.76252e-04
 Reference value :  1.76252e-04
 Reference value :  1.76253e-04
 Reference value :  1.76254e-04
 Reference value :  1.76255e-04
 Reference value :  1.76256e-04
 Reference value :  1.76257e-04
 Reference value :  1.76258e-04
 Reference value :  1.76259e-04
 Reference value :  1.76261e-04
 Reference value :  1.76263e-04
 Reference value :  1.76265e-04
 Reference value :  1.76269e-04
 Reference value :  1.76274e-04
 Reference value :  1.76285e-04
 Reference value :  1.76303e-04
 Reference value :  1.76336e-04
 Reference value :  1.76403e-04
 Reference value :  1.76500e-04
 Reference value :  1.76500e-04
 Reference value :  1.76500e-04
 Reference value :  1.76500e-04
 Reference value :  1.76500e-04
 Reference value :  1.76500e-04
 Reference value :  1.76500e-04
 Reference value :  1.76500e-04
 Reference value :  1.76500e-04
 Reference value :  1.76500e-04
 Reference value :  1.76500e-04
 Reference value :  1.76501e-04
 Reference value :  1.76501e-04
 Reference value :  1.76502e-04
 Reference value :  1.76502e-04
 Reference value :  1.76503e-04
 Reference value :  1.76504e-04
 Reference value :  1.76504e-04
 Reference value :  1.76505e-04
 Reference value :  1.76506e-04
 Reference value :  1.76507e-04
 Reference value :  1.76508e-04
 Reference value :  1.76510e-04
 Reference value :  1.76511e-04
 Reference value :  1.76513e-04
 Reference value :  1.76514e-04
 Reference value :  1.76516e-04
 Reference value :  1.76517e-04
 Reference value :  1.76519e-04
 Reference value :  1.76521e-04
 Reference value :  1.76525e-04
 Reference value :  1.76530e-04
 Reference value :  1.76542e-04
 Reference value :  1.76564e-04
 Reference value :  1.76610e-04
 Reference value :  1.76700e-04
 Reference value :  1.76750e-04
 Reference value :  1.76750e-04
 Reference value :  1.76750e-04
 Reference value :  1.76750e-04
 Reference value :  1.76750e-04
 Reference value :  1.76750e-04
 Reference value :  1.76750e-04
 Reference value :  1.76750e-04
 Reference value :  1.76750e-04
 Reference value :  1.76750e-04
 Reference value :  1.76750e-04
 Reference value :  1.76750e-04
 Reference value :  1.76750e-04
 Reference value :  1.76751e-04
 Reference value :  1.76751e-04
 Reference value :  1.76752e-04
 Reference value :  1.76752e-04
 Reference value :  1.76753e-04
 Reference value :  1.76754e-04
 Reference value :  1.76755e-04
 Reference value :  1.76756e-04
 Reference value :  1.76757e-04
 Reference value :  1.76758e-04
 Reference value :  1.76759e-04
 Reference value :  1.76760e-04
 Reference value :  1.76761e-04
 Reference value :  1.76764e-04
 Reference value :  1.76767e-04
 Reference value :  1.76771e-04
 Reference value :  1.76777e-04
 Reference value :  1.76789e-04
 Reference value :  1.76813e-04
 Reference value :  1.76862e-04
 Reference value :  1.76959e-04
 Reference value :  1.77000e-04
 Reference value :  1.77000e-04
 Reference value :  1.77000e-04
 Reference value :  1.77000e-04
 Reference value :  1.77000e-04
 Reference value :  1.77000e-04
 Reference value :  1.77000e-04
 Reference value :  1.77000e-04
 Reference value :  1.77000e-04
 Reference value :  1.77000e-04
 Reference value :  1.77000e-04
 Reference value :  1.77001e-04
 Reference value :  1.77001e-04
 Reference value :  1.77002e-04
 Reference value :  1.77002e-04
 Reference value :  1.77003e-04
 Reference value :  1.77004e-04
 Reference value :  1.77004e-04
 Reference value :  1.77005e-04
 Reference value :  1.77006e-04
 Reference value :  1.77007e-04
 Reference value :  1.77008e-04
 Reference value :  1.77009e-04
 Reference value :  1.77010e-04
 Reference value :  1.77011e-04
 Reference value :  1.77012e-04
 Reference value :  1.77014e-04
 Reference value :  1.77017e-04
 Reference value :  1.77020e-04
 Reference value :  1.77023e-04
 Reference value :  1.77025e-04
 Reference value :  1.77027e-04
 Reference value :  1.77029e-04
 Reference value :  1.77031e-04
 Reference value :  1.77034e-04
 Reference value :  1.77036e-04
 Reference value :  1.77039e-04
 Reference value :  1.77044e-04
 Reference value :  1.77050e-04
 Reference value :  1.77056e-04
 Reference value :  1.77065e-04
 Reference value :  1.77075e-04
 Reference value :  1.77081e-04
 Reference value :  1.77089e-04
 Reference value :  1.77096e-04
 Reference value :  1.77104e-04
 Reference value :  1.77116e-04
 Reference value :  1.77130e-04
 Reference value :  1.77153e-04
 Reference value :  1.77171e-04
 Reference value :  1.77194e-04
 Reference value :  1.77228e-04
 Reference value :  1.77250e-04
 Reference value :  1.77250e-04
 Reference value :  1.77250e-04
 Reference value :  1.77250e-04
 Reference value :  1.77250e-04
 Reference value :  1.77250e-04
 Reference value :  1.77250e-04
 Reference value :  1.77250e-04
 Reference value :  1.77250e-04
 Reference value :  1.77250e-04
 Reference value :  1.77250e-04
 Reference value :  1.77250e-04
 Reference value :  1.77250e-04
 Reference value :  1.77251e-04
 Reference value :  1.77251e-04
 Reference value :  1.77252e-04
 Reference value :  1.77252e-04
 Reference value :  1.77253e-04
 Reference value :  1.77254e-04
 Reference value :  1.77255e-04
 Reference value :  1.77256e-04
 Reference value :  1.77257e-04
 Reference value :  1.77258e-04
 Reference value :  1.77259e-04
 Reference value :  1.77260e-04
 Reference value :  1.77262e-04
 Reference value :  1.77265e-04
 Reference value :  1.77268e-04
 Reference value :  1.77273e-04
 Reference value :  1.77281e-04
 Reference value :  1.77298e-04
 Reference value :  1.77331e-04
 Reference value :  1.77397e-04
 Reference value :  1.77500e-04
 Reference value :  1.77500e-04
 Reference value :  1.77500e-04
 Reference value :  1.77500e-04
 Reference value :  1.77500e-04
 Reference value :  1.77500e-04
 Reference value :  1.77500e-04
 Reference value :  1.77500e-04
 Reference value :  1.77500e-04
 Reference value :  1.77500e-04
 Reference value :  1.77500e-04
 Reference value :  1.77501e-04
 Reference value :  1.77501e-04
 Reference value :  1.77502e-04
 Reference value :  1.77502e-04
 Reference value :  1.77503e-04
 Reference value :  1.77504e-04
 Reference value :  1.77504e-04
 Reference value :  1.77505e-04
 Reference value :  1.77506e-04
 Reference value :  1.77507e-04
 Reference value :  1.77508e-04
 Reference value :  1.77510e-04
 Reference value :  1.77511e-04
 Reference value :  1.77513e-04
 Reference value :  1.77514e-04
 Reference value :  1.77516e-04
 Reference value :  1.77517e-04
 Reference value :  1.77519e-04
 Reference value :  1.77521e-04
 Reference value :  1.77525e-04
 Reference value :  1.77532e-04
 Reference value :  1.77545e-04
 Reference value :  1.77571e-04
 Reference value :  1.77623e-04
 Reference value :  1.77726e-04
 Reference value :  1.77750e-04
 Reference value :  1.77750e-04
 Reference value :  1.77750e-04
 Reference value :  1.77750e-04
 Reference value :  1.77750e-04
 Reference value :  1.77750e-04
 Reference value :  1.77750e-04
 Reference value :  1.77750e-04
 Reference value :  1.77750e-04
 Reference value :  1.77750e-04
 Reference value :  1.77750e-04
 Reference value :  1.77750e-04
 Reference value :  1.77750e-04
 Reference value :  1.77751e-04
 Reference value :  1.77751e-04
 Reference value :  1.77752e-04
 Reference value :  1.77752e-04
 Reference value :  1.77753e-04
 Reference value :  1.77754e-04
 Reference value :  1.77755e-04
 Reference value :  1.77756e-04
 Reference value :  1.77757e-04
 Reference value :  1.77758e-04
 Reference value :  1.77759e-04
 Reference value :  1.77760e-04
 Reference value :  1.77761e-04
 Reference value :  1.77762e-04
 Reference value :  1.77764e-04
 Reference value :  1.77766e-04
 Reference value :  1.77769e-04
 Reference value :  1.77772e-04
 Reference value :  1.77777e-04
 Reference value :  1.77787e-04
 Reference value :  1.77802e-04
 Reference value :  1.77832e-04
 Reference value :  1.77893e-04
 Reference value :  1.78000e-04
 Reference value :  1.78000e-04
 Reference value :  1.78000e-04
 Reference value :  1.78000e-04
 Reference value :  1.78000e-04
 Reference value :  1.78000e-04
 Reference value :  1.78000e-04
 Reference value :  1.78000e-04
 Reference value :  1.78000e-04
 Reference value :  1.78000e-04
 Reference value :  1.78000e-04
 Reference value :  1.78001e-04
 Reference value :  1.78001e-04
 Reference value :  1.78002e-04
 Reference value :  1.78002e-04
 Reference value :  1.78003e-04
 Reference value :  1.78004e-04
 Reference value :  1.78004e-04
 Reference value :  1.78005e-04
 Reference value :  1.78006e-04
 Reference value :  1.78007e-04
 Reference value :  1.78008e-04
 Reference value :  1.78009e-04
 Reference value :  1.78010e-04
 Reference value :  1.78011e-04
 Reference value :  1.78012e-04
 Reference value :  1.78014e-04
 Reference value :  1.78016e-04
 Reference value :  1.78017e-04
 Reference value :  1.78019e-04
 Reference value :  1.78021e-04
 Reference value :  1.78023e-04
 Reference value :  1.78026e-04
 Reference value :  1.78028e-04
 Reference value :  1.78032e-04
 Reference value :  1.78036e-04
 Reference value :  1.78040e-04
 Reference value :  1.78044e-04
 Reference value :  1.78048e-04
 Reference value :  1.78052e-04
 Reference value :  1.78056e-04
 Reference value :  1.78061e-04
 Reference value :  1.78066e-04
 Reference value :  1.78072e-04
 Reference value :  1.78085e-04
 Reference value :  1.78107e-04
 Reference value :  1.78143e-04
 Reference value :  1.78213e-04
 Reference value :  1.78250e-04
 Reference value :  1.78250e-04
 Reference value :  1.78250e-04
 Reference value :  1.78250e-04
 Reference value :  1.78250e-04
 Reference value :  1.78250e-04
 Reference value :  1.78250e-04
 Reference value :  1.78250e-04
 Reference value :  1.78250e-04
 Reference value :  1.78250e-04
 Reference value :  1.78250e-04
 Reference value :  1.78250e-04
 Reference value :  1.78250e-04
 Reference value :  1.78251e-04
 Reference value :  1.78251e-04
 Reference value :  1.78252e-04
 Reference value :  1.78252e-04
 Reference value :  1.78253e-04
 Reference value :  1.78254e-04
 Reference value :  1.78255e-04
 Reference value :  1.78256e-04
 Reference value :  1.78258e-04
 Reference value :  1.78259e-04
 Reference value :  1.78261e-04
 Reference value :  1.78263e-04
 Reference value :  1.78266e-04
 Reference value :  1.78270e-04
 Reference value :  1.78276e-04
 Reference value :  1.78288e-04
 Reference value :  1.78311e-04
 Reference value :  1.78358e-04
 Reference value :  1.78450e-04
 Reference value :  1.78500e-04
No. of Data Rows : 27353
ngspice-44 done
