
Note: Compatibility modes selected: hs a


Circuit: ** sch_path: /home/audrey/cace/sar-adc-using-sky130-pdk/runs/run_2025-09-07_20-31-19/parameters/power/run_3/power_consumption.sch

option SCALE: Scale is set to 1e-06 for instance and model parameters
option SCALE: Scale is set to 1e-06 for instance and model parameters
option SCALE: Scale is set to 1e-06 for instance and model parameters
option SCALE: Scale is set to 1e-06 for instance and model parameters
Doing analysis at TEMP = 27.000000 and TNOM = 27.000000

Using KLU as Direct Linear Solver
 Reference value :  0.00000e+00
 Reference value :  1.00000e-12
 Reference value :  2.00000e-12
 Reference value :  4.00000e-12
 Reference value :  8.00000e-12
 Reference value :  1.60000e-11
 Reference value :  3.20000e-11
 Reference value :  6.40000e-11
 Reference value :  1.00000e-10
 Reference value :  1.01503e-10
 Reference value :  1.04508e-10
 Reference value :  1.10520e-10
 Reference value :  1.22542e-10
 Reference value :  1.46587e-10
 Reference value :  1.94677e-10
 Reference value :  2.90857e-10
 Reference value :  4.45340e-10
 Reference value :  7.21184e-10
 Reference value :  1.20325e-09
 Reference value :  1.65763e-09
 Reference value :  2.29654e-09
 Reference value :  3.01773e-09
 Reference value :  3.71765e-09
 Reference value :  4.63050e-09
 Reference value :  5.37167e-09
 Reference value :  6.15577e-09
 Reference value :  6.84645e-09
 Reference value :  7.67891e-09
 Reference value :  8.63441e-09
 Reference value :  9.64678e-09
 Reference value :  1.07875e-08
 Reference value :  1.20601e-08
 Reference value :  1.32465e-08
 Reference value :  1.46516e-08
 Reference value :  1.61478e-08
 Reference value :  1.73092e-08
 Reference value :  1.86323e-08
 Reference value :  2.00294e-08
 Reference value :  2.15569e-08
 Reference value :  2.32687e-08
 Reference value :  2.58754e-08
 Reference value :  2.82974e-08
 Reference value :  3.09535e-08
 Reference value :  3.43302e-08
 Reference value :  3.82654e-08
 Reference value :  4.23807e-08
 Reference value :  4.56183e-08
 Reference value :  4.70594e-08
 Reference value :  4.83521e-08
 Reference value :  4.97629e-08
 Reference value :  5.15566e-08
 Reference value :  5.37739e-08
 Reference value :  5.69353e-08
 Reference value :  6.05520e-08
 Reference value :  6.51761e-08
 Reference value :  6.99653e-08
 Reference value :  7.95436e-08
 Reference value :  9.24730e-08
 Reference value :  1.12180e-07
 Reference value :  1.42098e-07
 Reference value :  1.81151e-07
 Reference value :  2.38492e-07
 Reference value :  2.50100e-07
 Reference value :  2.50110e-07
 Reference value :  2.50130e-07
 Reference value :  2.50170e-07
 Reference value :  2.50200e-07
 Reference value :  2.50201e-07
 Reference value :  2.50202e-07
 Reference value :  2.50204e-07
 Reference value :  2.50208e-07
 Reference value :  2.50216e-07
 Reference value :  2.50233e-07
 Reference value :  2.50266e-07
 Reference value :  2.50333e-07
 Reference value :  2.50415e-07
 Reference value :  2.50579e-07
 Reference value :  2.50755e-07
 Reference value :  2.51080e-07
 Reference value :  2.51467e-07
 Reference value :  2.52030e-07
 Reference value :  2.52633e-07
 Reference value :  2.53380e-07
 Reference value :  2.54347e-07
 Reference value :  2.55207e-07
 Reference value :  2.56071e-07
 Reference value :  2.56959e-07
 Reference value :  2.57903e-07
 Reference value :  2.58851e-07
 Reference value :  2.60284e-07
 Reference value :  2.62475e-07
 Reference value :  2.64887e-07
 Reference value :  2.68836e-07
 Reference value :  2.74180e-07
 Reference value :  2.84868e-07
 Reference value :  3.06245e-07
 Reference value :  3.48167e-07
 Reference value :  4.32011e-07
 Reference value :  5.00000e-07
 Reference value :  5.00010e-07
 Reference value :  5.00030e-07
 Reference value :  5.00070e-07
 Reference value :  5.00100e-07
 Reference value :  5.00104e-07
 Reference value :  5.00113e-07
 Reference value :  5.00130e-07
 Reference value :  5.00164e-07
 Reference value :  5.00231e-07
 Reference value :  5.00367e-07
 Reference value :  5.00555e-07
 Reference value :  5.00932e-07
 Reference value :  5.01446e-07
 Reference value :  5.01996e-07
 Reference value :  5.02584e-07
 Reference value :  5.03316e-07
 Reference value :  5.04010e-07
 Reference value :  5.04937e-07
 Reference value :  5.05791e-07
 Reference value :  5.06837e-07
 Reference value :  5.08099e-07
 Reference value :  5.09667e-07
 Reference value :  5.11850e-07
 Reference value :  5.14331e-07
 Reference value :  5.16289e-07
 Reference value :  5.18411e-07
 Reference value :  5.21052e-07
 Reference value :  5.23880e-07
 Reference value :  5.26704e-07
 Reference value :  5.29448e-07
 Reference value :  5.32603e-07
 Reference value :  5.35918e-07
 Reference value :  5.39802e-07
 Reference value :  5.44691e-07
 Reference value :  5.48101e-07
 Reference value :  5.51843e-07
 Reference value :  5.55765e-07
 Reference value :  5.60163e-07
 Reference value :  5.66571e-07
 Reference value :  5.73708e-07
 Reference value :  5.80915e-07
 Reference value :  5.86802e-07
 Reference value :  5.93359e-07
 Reference value :  6.06473e-07
 Reference value :  6.24693e-07
 Reference value :  6.55086e-07
 Reference value :  7.07750e-07
 Reference value :  7.50100e-07
 Reference value :  7.50110e-07
 Reference value :  7.50130e-07
 Reference value :  7.50170e-07
 Reference value :  7.50200e-07
 Reference value :  7.50201e-07
 Reference value :  7.50202e-07
 Reference value :  7.50205e-07
 Reference value :  7.50211e-07
 Reference value :  7.50223e-07
 Reference value :  7.50247e-07
 Reference value :  7.50295e-07
 Reference value :  7.50390e-07
 Reference value :  7.50581e-07
 Reference value :  7.50959e-07
 Reference value :  7.51483e-07
 Reference value :  7.52141e-07
 Reference value :  7.52795e-07
 Reference value :  7.53543e-07
 Reference value :  7.54584e-07
 Reference value :  7.55346e-07
 Reference value :  7.56214e-07
 Reference value :  7.56973e-07
 Reference value :  7.57824e-07
 Reference value :  7.58845e-07
 Reference value :  7.59969e-07
 Reference value :  7.61127e-07
 Reference value :  7.62846e-07
 Reference value :  7.64639e-07
 Reference value :  7.67209e-07
 Reference value :  7.70344e-07
 Reference value :  7.74964e-07
 Reference value :  7.84204e-07
 Reference value :  7.98200e-07
 Reference value :  8.26192e-07
 Reference value :  8.82176e-07
 Reference value :  9.94143e-07
 Reference value :  1.00000e-06
 Reference value :  1.00001e-06
 Reference value :  1.00003e-06
 Reference value :  1.00007e-06
 Reference value :  1.00010e-06
 Reference value :  1.00010e-06
 Reference value :  1.00011e-06
 Reference value :  1.00013e-06
 Reference value :  1.00016e-06
 Reference value :  1.00023e-06
 Reference value :  1.00037e-06
 Reference value :  1.00056e-06
 Reference value :  1.00093e-06
 Reference value :  1.00145e-06
 Reference value :  1.00200e-06
 Reference value :  1.00258e-06
 Reference value :  1.00323e-06
 Reference value :  1.00391e-06
 Reference value :  1.00470e-06
 Reference value :  1.00554e-06
 Reference value :  1.00641e-06
 Reference value :  1.00723e-06
 Reference value :  1.00816e-06
 Reference value :  1.00911e-06
 Reference value :  1.01003e-06
 Reference value :  1.01135e-06
 Reference value :  1.01299e-06
 Reference value :  1.01556e-06
 Reference value :  1.01727e-06
 Reference value :  1.01916e-06
 Reference value :  1.02099e-06
 Reference value :  1.02253e-06
 Reference value :  1.02406e-06
 Reference value :  1.02548e-06
 Reference value :  1.02699e-06
 Reference value :  1.02873e-06
 Reference value :  1.03070e-06
 Reference value :  1.03321e-06
 Reference value :  1.03681e-06
 Reference value :  1.04298e-06
 Reference value :  1.05161e-06
 Reference value :  1.06531e-06
 Reference value :  1.08382e-06
 Reference value :  1.10176e-06
 Reference value :  1.12041e-06
 Reference value :  1.13286e-06
 Reference value :  1.14490e-06
 Reference value :  1.15806e-06
 Reference value :  1.17183e-06
 Reference value :  1.18836e-06
 Reference value :  1.21255e-06
 Reference value :  1.24003e-06
 Reference value :  1.25010e-06
 Reference value :  1.25011e-06
 Reference value :  1.25013e-06
 Reference value :  1.25017e-06
 Reference value :  1.25020e-06
 Reference value :  1.25020e-06
 Reference value :  1.25020e-06
 Reference value :  1.25021e-06
 Reference value :  1.25021e-06
 Reference value :  1.25022e-06
 Reference value :  1.25025e-06
 Reference value :  1.25029e-06
 Reference value :  1.25039e-06
 Reference value :  1.25058e-06
 Reference value :  1.25091e-06
 Reference value :  1.25146e-06
 Reference value :  1.25209e-06
 Reference value :  1.25276e-06
 Reference value :  1.25350e-06
 Reference value :  1.25453e-06
 Reference value :  1.25531e-06
 Reference value :  1.25621e-06
 Reference value :  1.25710e-06
 Reference value :  1.25804e-06
 Reference value :  1.25941e-06
 Reference value :  1.26117e-06
 Reference value :  1.26344e-06
 Reference value :  1.26672e-06
 Reference value :  1.27114e-06
 Reference value :  1.27999e-06
 Reference value :  1.29769e-06
 Reference value :  1.32826e-06
 Reference value :  1.38940e-06
 Reference value :  1.50000e-06
 Reference value :  1.50001e-06
 Reference value :  1.50003e-06
 Reference value :  1.50007e-06
 Reference value :  1.50010e-06
 Reference value :  1.50010e-06
 Reference value :  1.50011e-06
 Reference value :  1.50013e-06
 Reference value :  1.50016e-06
 Reference value :  1.50023e-06
 Reference value :  1.50037e-06
 Reference value :  1.50055e-06
 Reference value :  1.50091e-06
 Reference value :  1.50142e-06
 Reference value :  1.50197e-06
 Reference value :  1.50256e-06
 Reference value :  1.50321e-06
 Reference value :  1.50389e-06
 Reference value :  1.50467e-06
 Reference value :  1.50551e-06
 Reference value :  1.50642e-06
 Reference value :  1.50761e-06
 Reference value :  1.50888e-06
 Reference value :  1.51014e-06
 Reference value :  1.51151e-06
 Reference value :  1.51314e-06
 Reference value :  1.51468e-06
 Reference value :  1.51630e-06
 Reference value :  1.51797e-06
 Reference value :  1.51981e-06
 Reference value :  1.52351e-06
 Reference value :  1.53091e-06
 Reference value :  1.54355e-06
 Reference value :  1.56885e-06
 Reference value :  1.61944e-06
 Reference value :  1.72062e-06
 Reference value :  1.75010e-06
 Reference value :  1.75011e-06
 Reference value :  1.75013e-06
 Reference value :  1.75017e-06
 Reference value :  1.75020e-06
 Reference value :  1.75020e-06
 Reference value :  1.75020e-06
 Reference value :  1.75021e-06
 Reference value :  1.75021e-06
 Reference value :  1.75022e-06
 Reference value :  1.75025e-06
 Reference value :  1.75029e-06
 Reference value :  1.75039e-06
 Reference value :  1.75058e-06
 Reference value :  1.75091e-06
 Reference value :  1.75146e-06
 Reference value :  1.75209e-06
 Reference value :  1.75276e-06
 Reference value :  1.75350e-06
 Reference value :  1.75452e-06
 Reference value :  1.75530e-06
 Reference value :  1.75618e-06
 Reference value :  1.75694e-06
 Reference value :  1.75779e-06
 Reference value :  1.75880e-06
 Reference value :  1.75993e-06
 Reference value :  1.76220e-06
 Reference value :  1.76468e-06
 Reference value :  1.76876e-06
 Reference value :  1.77411e-06
 Reference value :  1.78481e-06
 Reference value :  1.80620e-06
 Reference value :  1.84900e-06
 Reference value :  1.93458e-06
 Reference value :  2.00000e-06
 Reference value :  2.00001e-06
 Reference value :  2.00003e-06
 Reference value :  2.00007e-06
 Reference value :  2.00010e-06
 Reference value :  2.00010e-06
 Reference value :  2.00011e-06
 Reference value :  2.00013e-06
 Reference value :  2.00016e-06
 Reference value :  2.00023e-06
 Reference value :  2.00037e-06
 Reference value :  2.00054e-06
 Reference value :  2.00090e-06
 Reference value :  2.00141e-06
 Reference value :  2.00196e-06
 Reference value :  2.00256e-06
 Reference value :  2.00321e-06
 Reference value :  2.00389e-06
 Reference value :  2.00466e-06
 Reference value :  2.00549e-06
 Reference value :  2.00639e-06
 Reference value :  2.00728e-06
 Reference value :  2.00810e-06
 Reference value :  2.00899e-06
 Reference value :  2.00992e-06
 Reference value :  2.01113e-06
 Reference value :  2.01281e-06
 Reference value :  2.01530e-06
 Reference value :  2.01803e-06
 Reference value :  2.02020e-06
 Reference value :  2.02212e-06
 Reference value :  2.02402e-06
 Reference value :  2.02584e-06
 Reference value :  2.02778e-06
 Reference value :  2.02996e-06
 Reference value :  2.03219e-06
 Reference value :  2.03497e-06
 Reference value :  2.03909e-06
 Reference value :  2.04503e-06
 Reference value :  2.05478e-06
 Reference value :  2.07060e-06
 Reference value :  2.09692e-06
 Reference value :  2.13470e-06
 Reference value :  2.19119e-06
 Reference value :  2.25010e-06
 Reference value :  2.25011e-06
 Reference value :  2.25013e-06
 Reference value :  2.25017e-06
 Reference value :  2.25020e-06
 Reference value :  2.25020e-06
 Reference value :  2.25020e-06
 Reference value :  2.25021e-06
 Reference value :  2.25021e-06
 Reference value :  2.25022e-06
 Reference value :  2.25025e-06
 Reference value :  2.25029e-06
 Reference value :  2.25039e-06
 Reference value :  2.25058e-06
 Reference value :  2.25091e-06
 Reference value :  2.25146e-06
 Reference value :  2.25208e-06
 Reference value :  2.25276e-06
 Reference value :  2.25349e-06
 Reference value :  2.25452e-06
 Reference value :  2.25530e-06
 Reference value :  2.25620e-06
 Reference value :  2.25710e-06
 Reference value :  2.25804e-06
 Reference value :  2.25942e-06
 Reference value :  2.26116e-06
 Reference value :  2.26344e-06
 Reference value :  2.26669e-06
 Reference value :  2.27114e-06
 Reference value :  2.28003e-06
 Reference value :  2.29737e-06
 Reference value :  2.32723e-06
 Reference value :  2.38695e-06
 Reference value :  2.47893e-06
 Reference value :  2.50000e-06
 Reference value :  2.50001e-06
 Reference value :  2.50003e-06
 Reference value :  2.50007e-06
 Reference value :  2.50010e-06
 Reference value :  2.50010e-06
 Reference value :  2.50011e-06
 Reference value :  2.50013e-06
 Reference value :  2.50016e-06
 Reference value :  2.50023e-06
 Reference value :  2.50037e-06
 Reference value :  2.50054e-06
 Reference value :  2.50090e-06
 Reference value :  2.50141e-06
 Reference value :  2.50196e-06
 Reference value :  2.50256e-06
 Reference value :  2.50320e-06
 Reference value :  2.50388e-06
 Reference value :  2.50466e-06
 Reference value :  2.50550e-06
 Reference value :  2.50641e-06
 Reference value :  2.50761e-06
 Reference value :  2.50887e-06
 Reference value :  2.51013e-06
 Reference value :  2.51150e-06
 Reference value :  2.51312e-06
 Reference value :  2.51467e-06
 Reference value :  2.51623e-06
 Reference value :  2.51783e-06
 Reference value :  2.51965e-06
 Reference value :  2.52329e-06
 Reference value :  2.53009e-06
 Reference value :  2.54322e-06
 Reference value :  2.56948e-06
 Reference value :  2.62199e-06
 Reference value :  2.72702e-06
 Reference value :  2.75010e-06
 Reference value :  2.75011e-06
 Reference value :  2.75013e-06
 Reference value :  2.75017e-06
 Reference value :  2.75020e-06
 Reference value :  2.75020e-06
 Reference value :  2.75020e-06
 Reference value :  2.75021e-06
 Reference value :  2.75021e-06
 Reference value :  2.75022e-06
 Reference value :  2.75025e-06
 Reference value :  2.75029e-06
 Reference value :  2.75039e-06
 Reference value :  2.75058e-06
 Reference value :  2.75091e-06
 Reference value :  2.75146e-06
 Reference value :  2.75208e-06
 Reference value :  2.75276e-06
 Reference value :  2.75349e-06
 Reference value :  2.75452e-06
 Reference value :  2.75529e-06
 Reference value :  2.75617e-06
 Reference value :  2.75693e-06
 Reference value :  2.75778e-06
 Reference value :  2.75879e-06
 Reference value :  2.75993e-06
 Reference value :  2.76221e-06
 Reference value :  2.76467e-06
 Reference value :  2.76876e-06
 Reference value :  2.77409e-06
 Reference value :  2.78475e-06
 Reference value :  2.80608e-06
 Reference value :  2.84821e-06
 Reference value :  2.93246e-06
 Reference value :  3.00000e-06
 Reference value :  3.00001e-06
 Reference value :  3.00003e-06
 Reference value :  3.00007e-06
 Reference value :  3.00010e-06
 Reference value :  3.00010e-06
 Reference value :  3.00011e-06
 Reference value :  3.00013e-06
 Reference value :  3.00016e-06
 Reference value :  3.00023e-06
 Reference value :  3.00037e-06
 Reference value :  3.00054e-06
 Reference value :  3.00090e-06
 Reference value :  3.00141e-06
 Reference value :  3.00196e-06
 Reference value :  3.00256e-06
 Reference value :  3.00320e-06
 Reference value :  3.00389e-06
 Reference value :  3.00466e-06
 Reference value :  3.00549e-06
 Reference value :  3.00634e-06
 Reference value :  3.00724e-06
 Reference value :  3.00806e-06
 Reference value :  3.00894e-06
 Reference value :  3.00987e-06
 Reference value :  3.01107e-06
 Reference value :  3.01274e-06
 Reference value :  3.01521e-06
 Reference value :  3.01790e-06
 Reference value :  3.02007e-06
 Reference value :  3.02184e-06
 Reference value :  3.02352e-06
 Reference value :  3.02537e-06
 Reference value :  3.02714e-06
 Reference value :  3.02914e-06
 Reference value :  3.03132e-06
 Reference value :  3.03440e-06
 Reference value :  3.03808e-06
 Reference value :  3.04532e-06
 Reference value :  3.05636e-06
 Reference value :  3.07490e-06
 Reference value :  3.10255e-06
 Reference value :  3.12366e-06
 Reference value :  3.14508e-06
 Reference value :  3.15986e-06
 Reference value :  3.17368e-06
 Reference value :  3.18314e-06
 Reference value :  3.19464e-06
 Reference value :  3.21289e-06
 Reference value :  3.23142e-06
 Reference value :  3.25010e-06
 Reference value :  3.25011e-06
 Reference value :  3.25013e-06
 Reference value :  3.25017e-06
 Reference value :  3.25020e-06
 Reference value :  3.25020e-06
 Reference value :  3.25020e-06
 Reference value :  3.25021e-06
 Reference value :  3.25021e-06
 Reference value :  3.25022e-06
 Reference value :  3.25025e-06
 Reference value :  3.25029e-06
 Reference value :  3.25039e-06
 Reference value :  3.25058e-06
 Reference value :  3.25091e-06
 Reference value :  3.25146e-06
 Reference value :  3.25208e-06
 Reference value :  3.25275e-06
 Reference value :  3.25349e-06
 Reference value :  3.25452e-06
 Reference value :  3.25529e-06
 Reference value :  3.25617e-06
 Reference value :  3.25706e-06
 Reference value :  3.25800e-06
 Reference value :  3.25936e-06
 Reference value :  3.26109e-06
 Reference value :  3.26335e-06
 Reference value :  3.26656e-06
 Reference value :  3.27050e-06
 Reference value :  3.27458e-06
 Reference value :  3.28276e-06
 Reference value :  3.29910e-06
 Reference value :  3.32648e-06
 Reference value :  3.38124e-06
 Reference value :  3.45163e-06
 Reference value :  3.50000e-06
 Reference value :  3.50001e-06
 Reference value :  3.50003e-06
 Reference value :  3.50007e-06
 Reference value :  3.50010e-06
 Reference value :  3.50010e-06
 Reference value :  3.50011e-06
 Reference value :  3.50013e-06
 Reference value :  3.50016e-06
 Reference value :  3.50023e-06
 Reference value :  3.50037e-06
 Reference value :  3.50055e-06
 Reference value :  3.50091e-06
 Reference value :  3.50142e-06
 Reference value :  3.50197e-06
 Reference value :  3.50256e-06
 Reference value :  3.50321e-06
 Reference value :  3.50389e-06
 Reference value :  3.50467e-06
 Reference value :  3.50551e-06
 Reference value :  3.50637e-06
 Reference value :  3.50758e-06
 Reference value :  3.50881e-06
 Reference value :  3.51009e-06
 Reference value :  3.51150e-06
 Reference value :  3.51305e-06
 Reference value :  3.51464e-06
 Reference value :  3.51608e-06
 Reference value :  3.51762e-06
 Reference value :  3.51940e-06
 Reference value :  3.52266e-06
 Reference value :  3.52765e-06
 Reference value :  3.53763e-06
 Reference value :  3.55759e-06
 Reference value :  3.59751e-06
 Reference value :  3.67735e-06
 Reference value :  3.75010e-06
 Reference value :  3.75011e-06
 Reference value :  3.75013e-06
 Reference value :  3.75017e-06
 Reference value :  3.75020e-06
 Reference value :  3.75020e-06
 Reference value :  3.75020e-06
 Reference value :  3.75021e-06
 Reference value :  3.75021e-06
 Reference value :  3.75022e-06
 Reference value :  3.75025e-06
 Reference value :  3.75029e-06
 Reference value :  3.75039e-06
 Reference value :  3.75058e-06
 Reference value :  3.75091e-06
 Reference value :  3.75146e-06
 Reference value :  3.75208e-06
 Reference value :  3.75275e-06
 Reference value :  3.75349e-06
 Reference value :  3.75452e-06
 Reference value :  3.75528e-06
 Reference value :  3.75616e-06
 Reference value :  3.75692e-06
 Reference value :  3.75776e-06
 Reference value :  3.75878e-06
 Reference value :  3.75991e-06
 Reference value :  3.76217e-06
 Reference value :  3.76463e-06
 Reference value :  3.76869e-06
 Reference value :  3.77396e-06
 Reference value :  3.78450e-06
 Reference value :  3.80558e-06
 Reference value :  3.84683e-06
 Reference value :  3.92934e-06
 Reference value :  4.00000e-06
 Reference value :  4.00001e-06
 Reference value :  4.00003e-06
 Reference value :  4.00007e-06
 Reference value :  4.00010e-06
 Reference value :  4.00010e-06
 Reference value :  4.00011e-06
 Reference value :  4.00013e-06
 Reference value :  4.00016e-06
 Reference value :  4.00023e-06
 Reference value :  4.00037e-06
 Reference value :  4.00054e-06
 Reference value :  4.00090e-06
 Reference value :  4.00141e-06
 Reference value :  4.00196e-06
 Reference value :  4.00256e-06
 Reference value :  4.00320e-06
 Reference value :  4.00389e-06
 Reference value :  4.00466e-06
 Reference value :  4.00549e-06
 Reference value :  4.00639e-06
 Reference value :  4.00728e-06
 Reference value :  4.00807e-06
 Reference value :  4.00902e-06
 Reference value :  4.00993e-06
 Reference value :  4.01114e-06
 Reference value :  4.01287e-06
 Reference value :  4.01552e-06
 Reference value :  4.01795e-06
 Reference value :  4.02011e-06
 Reference value :  4.02179e-06
 Reference value :  4.02336e-06
 Reference value :  4.02503e-06
 Reference value :  4.02675e-06
 Reference value :  4.02860e-06
 Reference value :  4.03063e-06
 Reference value :  4.03371e-06
 Reference value :  4.03695e-06
 Reference value :  4.04205e-06
 Reference value :  4.04720e-06
 Reference value :  4.05135e-06
 Reference value :  4.05653e-06
 Reference value :  4.06241e-06
 Reference value :  4.06675e-06
 Reference value :  4.07137e-06
 Reference value :  4.07593e-06
 Reference value :  4.08101e-06
 Reference value :  4.08771e-06
 Reference value :  4.09447e-06
 Reference value :  4.10214e-06
 Reference value :  4.10989e-06
 Reference value :  4.12538e-06
 Reference value :  4.14603e-06
 Reference value :  4.17883e-06
 Reference value :  4.22721e-06
 Reference value :  4.25010e-06
 Reference value :  4.25011e-06
 Reference value :  4.25013e-06
 Reference value :  4.25017e-06
 Reference value :  4.25020e-06
 Reference value :  4.25020e-06
 Reference value :  4.25020e-06
 Reference value :  4.25021e-06
 Reference value :  4.25021e-06
 Reference value :  4.25022e-06
 Reference value :  4.25025e-06
 Reference value :  4.25030e-06
 Reference value :  4.25039e-06
 Reference value :  4.25059e-06
 Reference value :  4.25093e-06
 Reference value :  4.25147e-06
 Reference value :  4.25210e-06
 Reference value :  4.25276e-06
 Reference value :  4.25350e-06
 Reference value :  4.25453e-06
 Reference value :  4.25527e-06
 Reference value :  4.25611e-06
 Reference value :  4.25700e-06
 Reference value :  4.25793e-06
 Reference value :  4.25922e-06
 Reference value :  4.26108e-06
 Reference value :  4.26327e-06
 Reference value :  4.26647e-06
 Reference value :  4.27075e-06
 Reference value :  4.27930e-06
 Reference value :  4.29640e-06
 Reference value :  4.32582e-06
 Reference value :  4.38467e-06
 Reference value :  4.49596e-06
 Reference value :  4.50000e-06
 Reference value :  4.50001e-06
 Reference value :  4.50003e-06
 Reference value :  4.50007e-06
 Reference value :  4.50010e-06
 Reference value :  4.50010e-06
 Reference value :  4.50011e-06
 Reference value :  4.50013e-06
 Reference value :  4.50016e-06
 Reference value :  4.50023e-06
 Reference value :  4.50037e-06
 Reference value :  4.50054e-06
 Reference value :  4.50090e-06
 Reference value :  4.50141e-06
 Reference value :  4.50196e-06
 Reference value :  4.50251e-06
 Reference value :  4.50322e-06
 Reference value :  4.50386e-06
 Reference value :  4.50463e-06
 Reference value :  4.50546e-06
 Reference value :  4.50632e-06
 Reference value :  4.50756e-06
 Reference value :  4.50875e-06
 Reference value :  4.51002e-06
 Reference value :  4.51145e-06
 Reference value :  4.51294e-06
 Reference value :  4.51437e-06
 Reference value :  4.51585e-06
 Reference value :  4.51746e-06
 Reference value :  4.51929e-06
 Reference value :  4.52263e-06
 Reference value :  4.52755e-06
 Reference value :  4.53729e-06
 Reference value :  4.55578e-06
 Reference value :  4.59111e-06
 Reference value :  4.66178e-06
 Reference value :  4.75010e-06
 Reference value :  4.75011e-06
 Reference value :  4.75013e-06
 Reference value :  4.75017e-06
 Reference value :  4.75020e-06
 Reference value :  4.75020e-06
 Reference value :  4.75020e-06
 Reference value :  4.75021e-06
 Reference value :  4.75021e-06
 Reference value :  4.75022e-06
 Reference value :  4.75025e-06
 Reference value :  4.75029e-06
 Reference value :  4.75039e-06
 Reference value :  4.75058e-06
 Reference value :  4.75091e-06
 Reference value :  4.75146e-06
 Reference value :  4.75208e-06
 Reference value :  4.75275e-06
 Reference value :  4.75349e-06
 Reference value :  4.75451e-06
 Reference value :  4.75527e-06
 Reference value :  4.75616e-06
 Reference value :  4.75691e-06
 Reference value :  4.75776e-06
 Reference value :  4.75877e-06
 Reference value :  4.75990e-06
 Reference value :  4.76101e-06
 Reference value :  4.76277e-06
 Reference value :  4.76445e-06
 Reference value :  4.76707e-06
 Reference value :  4.77003e-06
 Reference value :  4.77462e-06
 Reference value :  4.78305e-06
 Reference value :  4.79456e-06
 Reference value :  4.81589e-06
 Reference value :  4.85856e-06
 Reference value :  4.93704e-06
 Reference value :  5.00000e-06
 Reference value :  5.00001e-06
 Reference value :  5.00003e-06
 Reference value :  5.00007e-06
 Reference value :  5.00010e-06
 Reference value :  5.00010e-06
 Reference value :  5.00011e-06
 Reference value :  5.00013e-06
 Reference value :  5.00016e-06
 Reference value :  5.00023e-06
 Reference value :  5.00037e-06
 Reference value :  5.00055e-06
 Reference value :  5.00091e-06
 Reference value :  5.00142e-06
 Reference value :  5.00197e-06
 Reference value :  5.00256e-06
 Reference value :  5.00321e-06
 Reference value :  5.00390e-06
 Reference value :  5.00467e-06
 Reference value :  5.00551e-06
 Reference value :  5.00629e-06
 Reference value :  5.00710e-06
 Reference value :  5.00787e-06
 Reference value :  5.00877e-06
 Reference value :  5.00965e-06
 Reference value :  5.01083e-06
 Reference value :  5.01249e-06
 Reference value :  5.01389e-06
 Reference value :  5.01535e-06
 Reference value :  5.01683e-06
 Reference value :  5.01845e-06
 Reference value :  5.01994e-06
 Reference value :  5.02109e-06
 Reference value :  5.02217e-06
 Reference value :  5.02346e-06
 Reference value :  5.02481e-06
 Reference value :  5.02613e-06
 Reference value :  5.02770e-06
 Reference value :  5.02933e-06
 Reference value :  5.03208e-06
 Reference value :  5.03468e-06
 Reference value :  5.03987e-06
 Reference value :  5.04582e-06
 Reference value :  5.05121e-06
 Reference value :  5.05785e-06
 Reference value :  5.06249e-06
 Reference value :  5.06690e-06
 Reference value :  5.07136e-06
 Reference value :  5.07577e-06
 Reference value :  5.08056e-06
 Reference value :  5.08783e-06
 Reference value :  5.09637e-06
 Reference value :  5.10971e-06
 Reference value :  5.12774e-06
 Reference value :  5.15331e-06
 Reference value :  5.19223e-06
 Reference value :  5.21791e-06
 Reference value :  5.24278e-06
 Reference value :  5.25010e-06
 Reference value :  5.25011e-06
 Reference value :  5.25013e-06
 Reference value :  5.25017e-06
 Reference value :  5.25020e-06
 Reference value :  5.25020e-06
 Reference value :  5.25020e-06
 Reference value :  5.25021e-06
 Reference value :  5.25021e-06
 Reference value :  5.25022e-06
 Reference value :  5.25025e-06
 Reference value :  5.25029e-06
 Reference value :  5.25039e-06
 Reference value :  5.25058e-06
 Reference value :  5.25092e-06
 Reference value :  5.25146e-06
 Reference value :  5.25208e-06
 Reference value :  5.25275e-06
 Reference value :  5.25349e-06
 Reference value :  5.25451e-06
 Reference value :  5.25526e-06
 Reference value :  5.25612e-06
 Reference value :  5.25701e-06
 Reference value :  5.25793e-06
 Reference value :  5.25927e-06
 Reference value :  5.26103e-06
 Reference value :  5.26326e-06
 Reference value :  5.26642e-06
 Reference value :  5.27074e-06
 Reference value :  5.27939e-06
 Reference value :  5.29617e-06
 Reference value :  5.32509e-06
 Reference value :  5.38293e-06
 Reference value :  5.45352e-06
 Reference value :  5.50000e-06
 Reference value :  5.50001e-06
 Reference value :  5.50003e-06
 Reference value :  5.50007e-06
 Reference value :  5.50010e-06
 Reference value :  5.50010e-06
 Reference value :  5.50011e-06
 Reference value :  5.50013e-06
 Reference value :  5.50016e-06
 Reference value :  5.50023e-06
 Reference value :  5.50037e-06
 Reference value :  5.50054e-06
 Reference value :  5.50090e-06
 Reference value :  5.50141e-06
 Reference value :  5.50196e-06
 Reference value :  5.50252e-06
 Reference value :  5.50322e-06
 Reference value :  5.50387e-06
 Reference value :  5.50464e-06
 Reference value :  5.50547e-06
 Reference value :  5.50637e-06
 Reference value :  5.50761e-06
 Reference value :  5.50884e-06
 Reference value :  5.51009e-06
 Reference value :  5.51143e-06
 Reference value :  5.51309e-06
 Reference value :  5.51459e-06
 Reference value :  5.51617e-06
 Reference value :  5.51802e-06
 Reference value :  5.52007e-06
 Reference value :  5.52365e-06
 Reference value :  5.52883e-06
 Reference value :  5.53829e-06
 Reference value :  5.55546e-06
 Reference value :  5.58629e-06
 Reference value :  5.64572e-06
 Reference value :  5.75010e-06
 Reference value :  5.75011e-06
 Reference value :  5.75013e-06
 Reference value :  5.75017e-06
 Reference value :  5.75020e-06
 Reference value :  5.75020e-06
 Reference value :  5.75020e-06
 Reference value :  5.75021e-06
 Reference value :  5.75021e-06
 Reference value :  5.75022e-06
 Reference value :  5.75025e-06
 Reference value :  5.75029e-06
 Reference value :  5.75039e-06
 Reference value :  5.75058e-06
 Reference value :  5.75091e-06
 Reference value :  5.75146e-06
 Reference value :  5.75208e-06
 Reference value :  5.75275e-06
 Reference value :  5.75349e-06
 Reference value :  5.75451e-06
 Reference value :  5.75528e-06
 Reference value :  5.75617e-06
 Reference value :  5.75693e-06
 Reference value :  5.75778e-06
 Reference value :  5.75880e-06
 Reference value :  5.75993e-06
 Reference value :  5.76106e-06
 Reference value :  5.76279e-06
 Reference value :  5.76454e-06
 Reference value :  5.76712e-06
 Reference value :  5.77016e-06
 Reference value :  5.77476e-06
 Reference value :  5.78396e-06
 Reference value :  5.79643e-06
 Reference value :  5.82138e-06
 Reference value :  5.87127e-06
 Reference value :  5.97106e-06
 Reference value :  6.00000e-06
 Reference value :  6.00001e-06
 Reference value :  6.00003e-06
 Reference value :  6.00007e-06
 Reference value :  6.00010e-06
 Reference value :  6.00010e-06
 Reference value :  6.00011e-06
 Reference value :  6.00013e-06
 Reference value :  6.00016e-06
 Reference value :  6.00023e-06
 Reference value :  6.00037e-06
 Reference value :  6.00055e-06
 Reference value :  6.00091e-06
 Reference value :  6.00142e-06
 Reference value :  6.00197e-06
 Reference value :  6.00256e-06
 Reference value :  6.00321e-06
 Reference value :  6.00389e-06
 Reference value :  6.00466e-06
 Reference value :  6.00549e-06
 Reference value :  6.00634e-06
 Reference value :  6.00713e-06
 Reference value :  6.00784e-06
 Reference value :  6.00867e-06
 Reference value :  6.00959e-06
 Reference value :  6.01070e-06
 Reference value :  6.01224e-06
 Reference value :  6.01386e-06
 Reference value :  6.01552e-06
 Reference value :  6.01714e-06
 Reference value :  6.01869e-06
 Reference value :  6.02033e-06
 Reference value :  6.02155e-06
 Reference value :  6.02270e-06
 Reference value :  6.02406e-06
 Reference value :  6.02546e-06
 Reference value :  6.02674e-06
 Reference value :  6.02845e-06
 Reference value :  6.03028e-06
 Reference value :  6.03278e-06
 Reference value :  6.03621e-06
 Reference value :  6.03937e-06
 Reference value :  6.04198e-06
 Reference value :  6.04461e-06
 Reference value :  6.04743e-06
 Reference value :  6.05037e-06
 Reference value :  6.05319e-06
 Reference value :  6.05883e-06
 Reference value :  6.06700e-06
 Reference value :  6.07969e-06
 Reference value :  6.10232e-06
 Reference value :  6.13631e-06
 Reference value :  6.19622e-06
 Reference value :  6.25010e-06
 Reference value :  6.25011e-06
 Reference value :  6.25013e-06
 Reference value :  6.25017e-06
 Reference value :  6.25020e-06
 Reference value :  6.25020e-06
 Reference value :  6.25020e-06
 Reference value :  6.25021e-06
 Reference value :  6.25021e-06
 Reference value :  6.25022e-06
 Reference value :  6.25025e-06
 Reference value :  6.25030e-06
 Reference value :  6.25039e-06
 Reference value :  6.25059e-06
 Reference value :  6.25093e-06
 Reference value :  6.25147e-06
 Reference value :  6.25210e-06
 Reference value :  6.25276e-06
 Reference value :  6.25350e-06
 Reference value :  6.25453e-06
 Reference value :  6.25531e-06
 Reference value :  6.25620e-06
 Reference value :  6.25709e-06
 Reference value :  6.25803e-06
 Reference value :  6.25940e-06
 Reference value :  6.26116e-06
 Reference value :  6.26342e-06
 Reference value :  6.26669e-06
 Reference value :  6.27111e-06
 Reference value :  6.27995e-06
 Reference value :  6.29707e-06
 Reference value :  6.32645e-06
 Reference value :  6.38522e-06
 Reference value :  6.49254e-06
 Reference value :  6.50000e-06
 Reference value :  6.50001e-06
 Reference value :  6.50003e-06
 Reference value :  6.50007e-06
 Reference value :  6.50010e-06
 Reference value :  6.50010e-06
 Reference value :  6.50011e-06
 Reference value :  6.50013e-06
 Reference value :  6.50016e-06
 Reference value :  6.50023e-06
 Reference value :  6.50037e-06
 Reference value :  6.50054e-06
 Reference value :  6.50090e-06
 Reference value :  6.50141e-06
 Reference value :  6.50196e-06
 Reference value :  6.50256e-06
 Reference value :  6.50320e-06
 Reference value :  6.50388e-06
 Reference value :  6.50466e-06
 Reference value :  6.50550e-06
 Reference value :  6.50636e-06
 Reference value :  6.50757e-06
 Reference value :  6.50880e-06
 Reference value :  6.51008e-06
 Reference value :  6.51150e-06
 Reference value :  6.51303e-06
 Reference value :  6.51463e-06
 Reference value :  6.51611e-06
 Reference value :  6.51785e-06
 Reference value :  6.51979e-06
 Reference value :  6.52300e-06
 Reference value :  6.52785e-06
 Reference value :  6.53653e-06
 Reference value :  6.55265e-06
 Reference value :  6.58207e-06
 Reference value :  6.63918e-06
 Reference value :  6.74709e-06
 Reference value :  6.75010e-06
 Reference value :  6.75011e-06
 Reference value :  6.75013e-06
 Reference value :  6.75017e-06
 Reference value :  6.75020e-06
 Reference value :  6.75020e-06
 Reference value :  6.75020e-06
 Reference value :  6.75021e-06
 Reference value :  6.75021e-06
 Reference value :  6.75022e-06
 Reference value :  6.75025e-06
 Reference value :  6.75030e-06
 Reference value :  6.75039e-06
 Reference value :  6.75059e-06
 Reference value :  6.75093e-06
 Reference value :  6.75147e-06
 Reference value :  6.75210e-06
 Reference value :  6.75276e-06
 Reference value :  6.75351e-06
 Reference value :  6.75453e-06
 Reference value :  6.75530e-06
 Reference value :  6.75617e-06
 Reference value :  6.75693e-06
 Reference value :  6.75778e-06
 Reference value :  6.75879e-06
 Reference value :  6.75992e-06
 Reference value :  6.76219e-06
 Reference value :  6.76466e-06
 Reference value :  6.76873e-06
 Reference value :  6.77404e-06
 Reference value :  6.78466e-06
 Reference value :  6.80591e-06
 Reference value :  6.84752e-06
 Reference value :  6.93074e-06
 Reference value :  7.00000e-06
 Reference value :  7.00001e-06
 Reference value :  7.00003e-06
 Reference value :  7.00007e-06
 Reference value :  7.00010e-06
 Reference value :  7.00010e-06
 Reference value :  7.00011e-06
 Reference value :  7.00013e-06
 Reference value :  7.00016e-06
 Reference value :  7.00023e-06
 Reference value :  7.00037e-06
 Reference value :  7.00054e-06
 Reference value :  7.00090e-06
 Reference value :  7.00141e-06
 Reference value :  7.00196e-06
 Reference value :  7.00256e-06
 Reference value :  7.00321e-06
 Reference value :  7.00389e-06
 Reference value :  7.00466e-06
 Reference value :  7.00549e-06
 Reference value :  7.00640e-06
 Reference value :  7.00729e-06
 Reference value :  7.00805e-06
 Reference value :  7.00892e-06
 Reference value :  7.00991e-06
 Reference value :  7.01105e-06
 Reference value :  7.01293e-06
 Reference value :  7.01541e-06
 Reference value :  7.01826e-06
 Reference value :  7.02049e-06
 Reference value :  7.02235e-06
 Reference value :  7.02412e-06
 Reference value :  7.02602e-06
 Reference value :  7.02785e-06
 Reference value :  7.03000e-06
 Reference value :  7.03224e-06
 Reference value :  7.03492e-06
 Reference value :  7.03891e-06
 Reference value :  7.04452e-06
 Reference value :  7.05356e-06
 Reference value :  7.06542e-06
 Reference value :  7.08333e-06
 Reference value :  7.10583e-06
 Reference value :  7.12725e-06
 Reference value :  7.14808e-06
 Reference value :  7.16861e-06
 Reference value :  7.19032e-06
 Reference value :  7.21279e-06
 Reference value :  7.25010e-06
 Reference value :  7.25011e-06
 Reference value :  7.25013e-06
 Reference value :  7.25017e-06
 Reference value :  7.25020e-06
 Reference value :  7.25020e-06
 Reference value :  7.25020e-06
 Reference value :  7.25021e-06
 Reference value :  7.25021e-06
 Reference value :  7.25022e-06
 Reference value :  7.25025e-06
 Reference value :  7.25029e-06
 Reference value :  7.25039e-06
 Reference value :  7.25058e-06
 Reference value :  7.25092e-06
 Reference value :  7.25146e-06
 Reference value :  7.25209e-06
 Reference value :  7.25275e-06
 Reference value :  7.25349e-06
 Reference value :  7.25452e-06
 Reference value :  7.25524e-06
 Reference value :  7.25608e-06
 Reference value :  7.25697e-06
 Reference value :  7.25790e-06
 Reference value :  7.25917e-06
 Reference value :  7.26107e-06
 Reference value :  7.26322e-06
 Reference value :  7.26642e-06
 Reference value :  7.27065e-06
 Reference value :  7.27911e-06
 Reference value :  7.29601e-06
 Reference value :  7.32455e-06
 Reference value :  7.37927e-06
 Reference value :  7.42992e-06
 Reference value :  7.48803e-06
 Reference value :  7.50000e-06
 Reference value :  7.50001e-06
 Reference value :  7.50003e-06
 Reference value :  7.50007e-06
 Reference value :  7.50010e-06
 Reference value :  7.50010e-06
 Reference value :  7.50011e-06
 Reference value :  7.50013e-06
 Reference value :  7.50016e-06
 Reference value :  7.50023e-06
 Reference value :  7.50037e-06
 Reference value :  7.50055e-06
 Reference value :  7.50091e-06
 Reference value :  7.50142e-06
 Reference value :  7.50196e-06
 Reference value :  7.50251e-06
 Reference value :  7.50321e-06
 Reference value :  7.50385e-06
 Reference value :  7.50463e-06
 Reference value :  7.50546e-06
 Reference value :  7.50637e-06
 Reference value :  7.50762e-06
 Reference value :  7.50885e-06
 Reference value :  7.51021e-06
 Reference value :  7.51175e-06
 Reference value :  7.51321e-06
 Reference value :  7.51462e-06
 Reference value :  7.51611e-06
 Reference value :  7.51772e-06
 Reference value :  7.51955e-06
 Reference value :  7.52293e-06
 Reference value :  7.52783e-06
 Reference value :  7.53758e-06
 Reference value :  7.55591e-06
 Reference value :  7.59074e-06
 Reference value :  7.66040e-06
 Reference value :  7.75010e-06
 Reference value :  7.75011e-06
 Reference value :  7.75013e-06
 Reference value :  7.75017e-06
 Reference value :  7.75020e-06
 Reference value :  7.75020e-06
 Reference value :  7.75020e-06
 Reference value :  7.75021e-06
 Reference value :  7.75021e-06
 Reference value :  7.75022e-06
 Reference value :  7.75025e-06
 Reference value :  7.75029e-06
 Reference value :  7.75039e-06
 Reference value :  7.75058e-06
 Reference value :  7.75092e-06
 Reference value :  7.75146e-06
 Reference value :  7.75209e-06
 Reference value :  7.75276e-06
 Reference value :  7.75350e-06
 Reference value :  7.75452e-06
 Reference value :  7.75527e-06
 Reference value :  7.75614e-06
 Reference value :  7.75688e-06
 Reference value :  7.75772e-06
 Reference value :  7.75873e-06
 Reference value :  7.75986e-06
 Reference value :  7.76098e-06
 Reference value :  7.76275e-06
 Reference value :  7.76443e-06
 Reference value :  7.76706e-06
 Reference value :  7.77005e-06
 Reference value :  7.77465e-06
 Reference value :  7.78330e-06
 Reference value :  7.79506e-06
 Reference value :  7.81716e-06
 Reference value :  7.86135e-06
 Reference value :  7.94358e-06
 Reference value :  8.00000e-06
 Reference value :  8.00001e-06
 Reference value :  8.00003e-06
 Reference value :  8.00007e-06
 Reference value :  8.00010e-06
 Reference value :  8.00010e-06
 Reference value :  8.00011e-06
 Reference value :  8.00013e-06
 Reference value :  8.00016e-06
 Reference value :  8.00023e-06
 Reference value :  8.00037e-06
 Reference value :  8.00055e-06
 Reference value :  8.00091e-06
 Reference value :  8.00142e-06
 Reference value :  8.00196e-06
 Reference value :  8.00255e-06
 Reference value :  8.00320e-06
 Reference value :  8.00387e-06
 Reference value :  8.00465e-06
 Reference value :  8.00548e-06
 Reference value :  8.00633e-06
 Reference value :  8.00713e-06
 Reference value :  8.00789e-06
 Reference value :  8.00878e-06
 Reference value :  8.00967e-06
 Reference value :  8.01084e-06
 Reference value :  8.01252e-06
 Reference value :  8.01445e-06
 Reference value :  8.01595e-06
 Reference value :  8.01757e-06
 Reference value :  8.01936e-06
 Reference value :  8.02104e-06
 Reference value :  8.02296e-06
 Reference value :  8.02511e-06
 Reference value :  8.02839e-06
 Reference value :  8.03166e-06
 Reference value :  8.03555e-06
 Reference value :  8.03940e-06
 Reference value :  8.04296e-06
 Reference value :  8.04698e-06
 Reference value :  8.05084e-06
 Reference value :  8.05600e-06
 Reference value :  8.06164e-06
 Reference value :  8.07290e-06
 Reference value :  8.09069e-06
 Reference value :  8.12053e-06
 Reference value :  8.17335e-06
 Reference value :  8.25010e-06
 Reference value :  8.25011e-06
 Reference value :  8.25013e-06
 Reference value :  8.25017e-06
 Reference value :  8.25020e-06
 Reference value :  8.25020e-06
 Reference value :  8.25020e-06
 Reference value :  8.25021e-06
 Reference value :  8.25021e-06
 Reference value :  8.25022e-06
 Reference value :  8.25025e-06
 Reference value :  8.25030e-06
 Reference value :  8.25039e-06
 Reference value :  8.25059e-06
 Reference value :  8.25098e-06
 Reference value :  8.25148e-06
 Reference value :  8.25216e-06
 Reference value :  8.25280e-06
 Reference value :  8.25356e-06
 Reference value :  8.25460e-06
 Reference value :  8.25559e-06
 Reference value :  8.25697e-06
 Reference value :  8.25860e-06
 Reference value :  8.26009e-06
 Reference value :  8.26262e-06
 Reference value :  8.26531e-06
 Reference value :  8.26976e-06
 Reference value :  8.27659e-06
 Reference value :  8.29027e-06
 Reference value :  8.31761e-06
 Reference value :  8.36999e-06
 Reference value :  8.47474e-06
 Reference value :  8.50000e-06
No. of Data Rows : 1362
ngspice-44 done
