
Note: Compatibility modes selected: hs a


Circuit: ** sch_path: /home/samantha/cace/sar-adc-using-sky130-pdk/runs/run_2025-09-04_09-40-16/parameters/sampling_rate/run_4/sampling_rate.sch

option SCALE: Scale is set to 1e-06 for instance and model parameters
option SCALE: Scale is set to 1e-06 for instance and model parameters
option SCALE: Scale is set to 1e-06 for instance and model parameters
option SCALE: Scale is set to 1e-06 for instance and model parameters
Doing analysis at TEMP = 27.000000 and TNOM = 27.000000

Using KLU as Direct Linear Solver
Operating point simulation skipped by 'uic',
  now using transient initial conditions.
 Reference value :  1.00000e-12
 Reference value :  1.02751e-12
 Reference value :  1.19259e-12
 Reference value :  1.67569e-12
 Reference value :  4.37421e-12
 Reference value :  1.38641e-11
 Reference value :  5.50153e-11
 Reference value :  1.04703e-10
 Reference value :  1.32921e-10
 Reference value :  3.96289e-10
 Reference value :  9.52990e-10
 Reference value :  1.90652e-09
 Reference value :  3.26983e-09
 Reference value :  4.95025e-09
 Reference value :  7.12726e-09
 Reference value :  8.24472e-09
 Reference value :  8.99114e-09
 Reference value :  9.68121e-09
 Reference value :  1.04449e-08
 Reference value :  1.23064e-08
 Reference value :  1.33071e-08
 Reference value :  1.40877e-08
 Reference value :  1.49217e-08
 Reference value :  1.68972e-08
 Reference value :  2.09587e-08
 Reference value :  2.49752e-08
 Reference value :  3.43482e-08
 Reference value :  4.64255e-08
 Reference value :  7.25049e-08
 Reference value :  9.85491e-08
 Reference value :  1.43251e-07
 Reference value :  2.50100e-07
 Reference value :  2.50130e-07
 Reference value :  2.50200e-07
 Reference value :  2.50208e-07
 Reference value :  2.50223e-07
 Reference value :  2.50253e-07
 Reference value :  2.50379e-07
 Reference value :  2.50653e-07
 Reference value :  2.50915e-07
 Reference value :  2.51636e-07
 Reference value :  2.52082e-07
 Reference value :  2.52678e-07
 Reference value :  2.53419e-07
 Reference value :  2.53967e-07
 Reference value :  2.54619e-07
 Reference value :  2.55234e-07
 Reference value :  2.55885e-07
 Reference value :  2.56689e-07
 Reference value :  2.57831e-07
 Reference value :  2.61135e-07
 Reference value :  2.69487e-07
 Reference value :  2.98769e-07
 Reference value :  4.10476e-07
 Reference value :  5.00000e-07
 Reference value :  5.00010e-07
 Reference value :  5.00030e-07
 Reference value :  5.00070e-07
 Reference value :  5.00100e-07
 Reference value :  5.00124e-07
 Reference value :  5.00218e-07
 Reference value :  5.00494e-07
 Reference value :  5.01270e-07
 Reference value :  5.01743e-07
 Reference value :  5.02177e-07
 Reference value :  5.02665e-07
 Reference value :  5.03240e-07
 Reference value :  5.03833e-07
 Reference value :  5.04472e-07
 Reference value :  5.06231e-07
 Reference value :  5.08778e-07
 Reference value :  5.09979e-07
 Reference value :  5.11234e-07
 Reference value :  5.12794e-07
 Reference value :  5.14507e-07
 Reference value :  5.16030e-07
 Reference value :  5.17738e-07
 Reference value :  5.20108e-07
 Reference value :  5.26784e-07
 Reference value :  5.33585e-07
 Reference value :  5.61199e-07
 Reference value :  6.71653e-07
 Reference value :  7.50110e-07
 Reference value :  7.50130e-07
 Reference value :  7.50200e-07
 Reference value :  7.50223e-07
 Reference value :  7.50254e-07
 Reference value :  7.50440e-07
 Reference value :  7.50571e-07
 Reference value :  7.51193e-07
 Reference value :  7.51624e-07
 Reference value :  7.52670e-07
 Reference value :  7.53946e-07
 Reference value :  7.54540e-07
 Reference value :  7.55092e-07
 Reference value :  7.55709e-07
 Reference value :  7.56530e-07
 Reference value :  7.57402e-07
 Reference value :  7.61240e-07
 Reference value :  7.64874e-07
 Reference value :  7.72142e-07
 Reference value :  8.15748e-07
 Reference value :  9.90174e-07
 Reference value :  1.00001e-06
 Reference value :  1.00007e-06
 Reference value :  1.00011e-06
 Reference value :  1.00015e-06
 Reference value :  1.00022e-06
 Reference value :  1.00033e-06
 Reference value :  1.00049e-06
 Reference value :  1.00132e-06
 Reference value :  1.00178e-06
 Reference value :  1.00220e-06
 Reference value :  1.00270e-06
 Reference value :  1.00330e-06
 Reference value :  1.00394e-06
 Reference value :  1.00443e-06
 Reference value :  1.00502e-06
 Reference value :  1.00556e-06
 Reference value :  1.00618e-06
 Reference value :  1.00763e-06
 Reference value :  1.01004e-06
 Reference value :  1.01150e-06
 Reference value :  1.01276e-06
 Reference value :  1.01381e-06
 Reference value :  1.01482e-06
 Reference value :  1.01589e-06
 Reference value :  1.01696e-06
 Reference value :  1.01927e-06
 Reference value :  1.02255e-06
 Reference value :  1.03156e-06
 Reference value :  1.06083e-06
 Reference value :  1.15938e-06
 Reference value :  1.25010e-06
 Reference value :  1.25011e-06
 Reference value :  1.25013e-06
 Reference value :  1.25020e-06
 Reference value :  1.25022e-06
 Reference value :  1.25025e-06
 Reference value :  1.25032e-06
 Reference value :  1.25057e-06
 Reference value :  1.25080e-06
 Reference value :  1.25162e-06
 Reference value :  1.25210e-06
 Reference value :  1.25267e-06
 Reference value :  1.25342e-06
 Reference value :  1.25395e-06
 Reference value :  1.25455e-06
 Reference value :  1.25515e-06
 Reference value :  1.25674e-06
 Reference value :  1.25795e-06
 Reference value :  1.26211e-06
 Reference value :  1.27477e-06
 Reference value :  1.29167e-06
 Reference value :  1.39301e-06
 Reference value :  1.50001e-06
 Reference value :  1.50007e-06
 Reference value :  1.50011e-06
 Reference value :  1.50015e-06
 Reference value :  1.50022e-06
 Reference value :  1.50049e-06
 Reference value :  1.50127e-06
 Reference value :  1.50174e-06
 Reference value :  1.50218e-06
 Reference value :  1.50322e-06
 Reference value :  1.50441e-06
 Reference value :  1.50616e-06
 Reference value :  1.50718e-06
 Reference value :  1.50831e-06
 Reference value :  1.51038e-06
 Reference value :  1.51155e-06
 Reference value :  1.51931e-06
 Reference value :  1.53968e-06
 Reference value :  1.56346e-06
 Reference value :  1.60868e-06
 Reference value :  1.75011e-06
 Reference value :  1.75017e-06
 Reference value :  1.75020e-06
 Reference value :  1.75022e-06
 Reference value :  1.75044e-06
 Reference value :  1.75080e-06
 Reference value :  1.75122e-06
 Reference value :  1.75212e-06
 Reference value :  1.75269e-06
 Reference value :  1.75347e-06
 Reference value :  1.75399e-06
 Reference value :  1.75459e-06
 Reference value :  1.75515e-06
 Reference value :  1.75662e-06
 Reference value :  1.75923e-06
 Reference value :  1.76547e-06
 Reference value :  1.77342e-06
 Reference value :  1.82113e-06
 Reference value :  2.00000e-06
 Reference value :  2.00001e-06
 Reference value :  2.00007e-06
 Reference value :  2.00012e-06
 Reference value :  2.00022e-06
 Reference value :  2.00049e-06
 Reference value :  2.00127e-06
 Reference value :  2.00218e-06
 Reference value :  2.00333e-06
 Reference value :  2.00443e-06
 Reference value :  2.00556e-06
 Reference value :  2.00619e-06
 Reference value :  2.00764e-06
 Reference value :  2.00867e-06
 Reference value :  2.01006e-06
 Reference value :  2.01151e-06
 Reference value :  2.01276e-06
 Reference value :  2.01380e-06
 Reference value :  2.01587e-06
 Reference value :  2.01694e-06
 Reference value :  2.01804e-06
 Reference value :  2.01925e-06
 Reference value :  2.02252e-06
 Reference value :  2.02551e-06
 Reference value :  2.02852e-06
 Reference value :  2.03157e-06
 Reference value :  2.03354e-06
 Reference value :  2.04067e-06
 Reference value :  2.04361e-06
 Reference value :  2.04679e-06
 Reference value :  2.05131e-06
 Reference value :  2.05593e-06
 Reference value :  2.06785e-06
 Reference value :  2.08519e-06
 Reference value :  2.12380e-06
 Reference value :  2.25010e-06
 Reference value :  2.25013e-06
 Reference value :  2.25020e-06
 Reference value :  2.25022e-06
 Reference value :  2.25032e-06
 Reference value :  2.25057e-06
 Reference value :  2.25080e-06
 Reference value :  2.25162e-06
 Reference value :  2.25267e-06
 Reference value :  2.25342e-06
 Reference value :  2.25392e-06
 Reference value :  2.25450e-06
 Reference value :  2.25517e-06
 Reference value :  2.25587e-06
 Reference value :  2.25820e-06
 Reference value :  2.26254e-06
 Reference value :  2.27516e-06
 Reference value :  2.32562e-06
 Reference value :  2.50000e-06
 Reference value :  2.50001e-06
 Reference value :  2.50007e-06
 Reference value :  2.50010e-06
 Reference value :  2.50011e-06
 Reference value :  2.50015e-06
 Reference value :  2.50022e-06
 Reference value :  2.50033e-06
 Reference value :  2.50081e-06
 Reference value :  2.50178e-06
 Reference value :  2.50220e-06
 Reference value :  2.50267e-06
 Reference value :  2.50328e-06
 Reference value :  2.50394e-06
 Reference value :  2.50469e-06
 Reference value :  2.50654e-06
 Reference value :  2.50734e-06
 Reference value :  2.50822e-06
 Reference value :  2.50909e-06
 Reference value :  2.51005e-06
 Reference value :  2.51116e-06
 Reference value :  2.51239e-06
 Reference value :  2.51486e-06
 Reference value :  2.51850e-06
 Reference value :  2.52504e-06
 Reference value :  2.53668e-06
 Reference value :  2.55644e-06
 Reference value :  2.59595e-06
 Reference value :  2.67498e-06
 Reference value :  2.75010e-06
 Reference value :  2.75013e-06
 Reference value :  2.75017e-06
 Reference value :  2.75021e-06
 Reference value :  2.75026e-06
 Reference value :  2.75058e-06
 Reference value :  2.75122e-06
 Reference value :  2.75212e-06
 Reference value :  2.75346e-06
 Reference value :  2.75398e-06
 Reference value :  2.75513e-06
 Reference value :  2.75658e-06
 Reference value :  2.75839e-06
 Reference value :  2.76201e-06
 Reference value :  2.77456e-06
 Reference value :  2.84553e-06
 Reference value :  3.00001e-06
 Reference value :  3.00007e-06
 Reference value :  3.00011e-06
 Reference value :  3.00015e-06
 Reference value :  3.00033e-06
 Reference value :  3.00081e-06
 Reference value :  3.00127e-06
 Reference value :  3.00218e-06
 Reference value :  3.00332e-06
 Reference value :  3.00442e-06
 Reference value :  3.00556e-06
 Reference value :  3.00617e-06
 Reference value :  3.00763e-06
 Reference value :  3.00858e-06
 Reference value :  3.01078e-06
 Reference value :  3.01182e-06
 Reference value :  3.01298e-06
 Reference value :  3.01381e-06
 Reference value :  3.01559e-06
 Reference value :  3.01660e-06
 Reference value :  3.01878e-06
 Reference value :  3.02185e-06
 Reference value :  3.04751e-06
 Reference value :  3.06501e-06
 Reference value :  3.07126e-06
 Reference value :  3.07606e-06
 Reference value :  3.08216e-06
 Reference value :  3.09182e-06
 Reference value :  3.10724e-06
 Reference value :  3.14007e-06
 Reference value :  3.15528e-06
 Reference value :  3.17019e-06
 Reference value :  3.18443e-06
 Reference value :  3.20755e-06
 Reference value :  3.25010e-06
 Reference value :  3.25017e-06
 Reference value :  3.25022e-06
 Reference value :  3.25044e-06
 Reference value :  3.25119e-06
 Reference value :  3.25210e-06
 Reference value :  3.25342e-06
 Reference value :  3.25391e-06
 Reference value :  3.25519e-06
 Reference value :  3.25679e-06
 Reference value :  3.25977e-06
 Reference value :  3.27562e-06
 Reference value :  3.50000e-06
 Reference value :  3.50003e-06
 Reference value :  3.50010e-06
 Reference value :  3.50012e-06
 Reference value :  3.50022e-06
 Reference value :  3.50049e-06
 Reference value :  3.50081e-06
 Reference value :  3.50178e-06
 Reference value :  3.50220e-06
 Reference value :  3.50328e-06
 Reference value :  3.50394e-06
 Reference value :  3.50470e-06
 Reference value :  3.50654e-06
 Reference value :  3.50734e-06
 Reference value :  3.50822e-06
 Reference value :  3.50908e-06
 Reference value :  3.51005e-06
 Reference value :  3.51115e-06
 Reference value :  3.51485e-06
 Reference value :  3.52495e-06
 Reference value :  3.55593e-06
 Reference value :  3.75010e-06
 Reference value :  3.75013e-06
 Reference value :  3.75020e-06
 Reference value :  3.75022e-06
 Reference value :  3.75032e-06
 Reference value :  3.75058e-06
 Reference value :  3.75122e-06
 Reference value :  3.75212e-06
 Reference value :  3.75346e-06
 Reference value :  3.75398e-06
 Reference value :  3.75513e-06
 Reference value :  3.75659e-06
 Reference value :  3.75840e-06
 Reference value :  3.76061e-06
 Reference value :  3.76456e-06
 Reference value :  3.78628e-06
 Reference value :  3.92802e-06
 Reference value :  4.00001e-06
 Reference value :  4.00007e-06
 Reference value :  4.00011e-06
 Reference value :  4.00015e-06
 Reference value :  4.00033e-06
 Reference value :  4.00049e-06
 Reference value :  4.00127e-06
 Reference value :  4.00174e-06
 Reference value :  4.00218e-06
 Reference value :  4.00333e-06
 Reference value :  4.00393e-06
 Reference value :  4.00443e-06
 Reference value :  4.00501e-06
 Reference value :  4.00556e-06
 Reference value :  4.00618e-06
 Reference value :  4.00763e-06
 Reference value :  4.00859e-06
 Reference value :  4.01078e-06
 Reference value :  4.01183e-06
 Reference value :  4.01299e-06
 Reference value :  4.01383e-06
 Reference value :  4.01462e-06
 Reference value :  4.01571e-06
 Reference value :  4.01671e-06
 Reference value :  4.01775e-06
 Reference value :  4.01898e-06
 Reference value :  4.02214e-06
 Reference value :  4.02941e-06
 Reference value :  4.03438e-06
 Reference value :  4.03890e-06
 Reference value :  4.04193e-06
 Reference value :  4.04729e-06
 Reference value :  4.05253e-06
 Reference value :  4.06668e-06
 Reference value :  4.09003e-06
 Reference value :  4.13603e-06
 Reference value :  4.21979e-06
 Reference value :  4.25010e-06
 Reference value :  4.25013e-06
 Reference value :  4.25020e-06
 Reference value :  4.25025e-06
 Reference value :  4.25038e-06
 Reference value :  4.25068e-06
 Reference value :  4.25132e-06
 Reference value :  4.25224e-06
 Reference value :  4.25376e-06
 Reference value :  4.25432e-06
 Reference value :  4.25569e-06
 Reference value :  4.25905e-06
 Reference value :  4.26355e-06
 Reference value :  4.27062e-06
 Reference value :  4.29194e-06
 Reference value :  4.30365e-06
 Reference value :  4.32825e-06
 Reference value :  4.36994e-06
 Reference value :  4.50000e-06
 Reference value :  4.50001e-06
 Reference value :  4.50007e-06
 Reference value :  4.50011e-06
 Reference value :  4.50015e-06
 Reference value :  4.50034e-06
 Reference value :  4.50095e-06
 Reference value :  4.50158e-06
 Reference value :  4.50263e-06
 Reference value :  4.50375e-06
 Reference value :  4.50512e-06
 Reference value :  4.50604e-06
 Reference value :  4.50798e-06
 Reference value :  4.50892e-06
 Reference value :  4.50992e-06
 Reference value :  4.51097e-06
 Reference value :  4.51254e-06
 Reference value :  4.51421e-06
 Reference value :  4.53263e-06
 Reference value :  4.58915e-06
 Reference value :  4.66450e-06
 Reference value :  4.75010e-06
 Reference value :  4.75011e-06
 Reference value :  4.75013e-06
 Reference value :  4.75017e-06
 Reference value :  4.75020e-06
 Reference value :  4.75021e-06
 Reference value :  4.75025e-06
 Reference value :  4.75038e-06
 Reference value :  4.75068e-06
 Reference value :  4.75092e-06
 Reference value :  4.75132e-06
 Reference value :  4.75176e-06
 Reference value :  4.75289e-06
 Reference value :  4.75377e-06
 Reference value :  4.75433e-06
 Reference value :  4.75565e-06
 Reference value :  4.75636e-06
 Reference value :  4.75718e-06
 Reference value :  4.75927e-06
 Reference value :  4.76189e-06
 Reference value :  4.76681e-06
 Reference value :  4.78123e-06
 Reference value :  4.82391e-06
 Reference value :  4.95061e-06
 Reference value :  5.00003e-06
 Reference value :  5.00010e-06
 Reference value :  5.00012e-06
 Reference value :  5.00022e-06
 Reference value :  5.00059e-06
 Reference value :  5.00158e-06
 Reference value :  5.00265e-06
 Reference value :  5.00321e-06
 Reference value :  5.00378e-06
 Reference value :  5.00443e-06
 Reference value :  5.00494e-06
 Reference value :  5.00552e-06
 Reference value :  5.00605e-06
 Reference value :  5.00665e-06
 Reference value :  5.00835e-06
 Reference value :  5.01053e-06
 Reference value :  5.01267e-06
 Reference value :  5.01372e-06
 Reference value :  5.01470e-06
 Reference value :  5.01578e-06
 Reference value :  5.01688e-06
 Reference value :  5.01798e-06
 Reference value :  5.01934e-06
 Reference value :  5.02265e-06
 Reference value :  5.02499e-06
 Reference value :  5.02658e-06
 Reference value :  5.02809e-06
 Reference value :  5.02963e-06
 Reference value :  5.03393e-06
 Reference value :  5.03692e-06
 Reference value :  5.04863e-06
 Reference value :  5.07181e-06
 Reference value :  5.10960e-06
 Reference value :  5.21220e-06
 Reference value :  5.25011e-06
 Reference value :  5.25017e-06
 Reference value :  5.25021e-06
 Reference value :  5.25025e-06
 Reference value :  5.25038e-06
 Reference value :  5.25066e-06
 Reference value :  5.25091e-06
 Reference value :  5.25129e-06
 Reference value :  5.25173e-06
 Reference value :  5.25220e-06
 Reference value :  5.25283e-06
 Reference value :  5.25369e-06
 Reference value :  5.25427e-06
 Reference value :  5.25491e-06
 Reference value :  5.25576e-06
 Reference value :  5.25654e-06
 Reference value :  5.25749e-06
 Reference value :  5.25903e-06
 Reference value :  5.26129e-06
 Reference value :  5.26501e-06
 Reference value :  5.28390e-06
 Reference value :  5.34373e-06
 Reference value :  5.50000e-06
 Reference value :  5.50003e-06
 Reference value :  5.50010e-06
 Reference value :  5.50012e-06
 Reference value :  5.50022e-06
 Reference value :  5.50059e-06
 Reference value :  5.50158e-06
 Reference value :  5.50216e-06
 Reference value :  5.50266e-06
 Reference value :  5.50321e-06
 Reference value :  5.50377e-06
 Reference value :  5.50439e-06
 Reference value :  5.50515e-06
 Reference value :  5.50593e-06
 Reference value :  5.50709e-06
 Reference value :  5.50798e-06
 Reference value :  5.50993e-06
 Reference value :  5.51100e-06
 Reference value :  5.51428e-06
 Reference value :  5.52335e-06
 Reference value :  5.55347e-06
 Reference value :  5.59356e-06
 Reference value :  5.75010e-06
 Reference value :  5.75011e-06
 Reference value :  5.75013e-06
 Reference value :  5.75020e-06
 Reference value :  5.75022e-06
 Reference value :  5.75025e-06
 Reference value :  5.75031e-06
 Reference value :  5.75038e-06
 Reference value :  5.75051e-06
 Reference value :  5.75068e-06
 Reference value :  5.75092e-06
 Reference value :  5.75132e-06
 Reference value :  5.75176e-06
 Reference value :  5.75224e-06
 Reference value :  5.75376e-06
 Reference value :  5.75432e-06
 Reference value :  5.75497e-06
 Reference value :  5.75564e-06
 Reference value :  5.75634e-06
 Reference value :  5.75730e-06
 Reference value :  5.76329e-06
 Reference value :  5.79582e-06
 Reference value :  5.98660e-06
 Reference value :  6.00001e-06
 Reference value :  6.00007e-06
 Reference value :  6.00011e-06
 Reference value :  6.00015e-06
 Reference value :  6.00034e-06
 Reference value :  6.00059e-06
 Reference value :  6.00095e-06
 Reference value :  6.00158e-06
 Reference value :  6.00216e-06
 Reference value :  6.00265e-06
 Reference value :  6.00321e-06
 Reference value :  6.00379e-06
 Reference value :  6.00445e-06
 Reference value :  6.00501e-06
 Reference value :  6.00563e-06
 Reference value :  6.00625e-06
 Reference value :  6.00691e-06
 Reference value :  6.00780e-06
 Reference value :  6.01025e-06
 Reference value :  6.01297e-06
 Reference value :  6.01399e-06
 Reference value :  6.01606e-06
 Reference value :  6.01710e-06
 Reference value :  6.01938e-06
 Reference value :  6.02273e-06
 Reference value :  6.03013e-06
 Reference value :  6.03622e-06
 Reference value :  6.04296e-06
 Reference value :  6.04784e-06
 Reference value :  6.05313e-06
 Reference value :  6.05917e-06
 Reference value :  6.07168e-06
 Reference value :  6.09187e-06
 Reference value :  6.10873e-06
 Reference value :  6.13645e-06
 Reference value :  6.17207e-06
 Reference value :  6.24871e-06
 Reference value :  6.25011e-06
 Reference value :  6.25017e-06
 Reference value :  6.25021e-06
 Reference value :  6.25025e-06
 Reference value :  6.25038e-06
 Reference value :  6.25066e-06
 Reference value :  6.25091e-06
 Reference value :  6.25129e-06
 Reference value :  6.25174e-06
 Reference value :  6.25220e-06
 Reference value :  6.25284e-06
 Reference value :  6.25369e-06
 Reference value :  6.25424e-06
 Reference value :  6.25564e-06
 Reference value :  6.25737e-06
 Reference value :  6.26112e-06
 Reference value :  6.26838e-06
 Reference value :  6.28020e-06
 Reference value :  6.30138e-06
 Reference value :  6.31800e-06
 Reference value :  6.35204e-06
 Reference value :  6.38050e-06
 Reference value :  6.43743e-06
 Reference value :  6.50000e-06
 Reference value :  6.50003e-06
 Reference value :  6.50010e-06
 Reference value :  6.50012e-06
 Reference value :  6.50022e-06
 Reference value :  6.50059e-06
 Reference value :  6.50095e-06
 Reference value :  6.50216e-06
 Reference value :  6.50266e-06
 Reference value :  6.50377e-06
 Reference value :  6.50514e-06
 Reference value :  6.50708e-06
 Reference value :  6.50796e-06
 Reference value :  6.50891e-06
 Reference value :  6.50989e-06
 Reference value :  6.51094e-06
 Reference value :  6.51255e-06
 Reference value :  6.51745e-06
 Reference value :  6.52286e-06
 Reference value :  6.55046e-06
 Reference value :  6.66060e-06
 Reference value :  6.75011e-06
 Reference value :  6.75017e-06
 Reference value :  6.75021e-06
 Reference value :  6.75025e-06
 Reference value :  6.75031e-06
 Reference value :  6.75051e-06
 Reference value :  6.75068e-06
 Reference value :  6.75132e-06
 Reference value :  6.75176e-06
 Reference value :  6.75224e-06
 Reference value :  6.75289e-06
 Reference value :  6.75376e-06
 Reference value :  6.75432e-06
 Reference value :  6.75497e-06
 Reference value :  6.75565e-06
 Reference value :  6.75634e-06
 Reference value :  6.75733e-06
 Reference value :  6.76043e-06
 Reference value :  6.76914e-06
 Reference value :  6.77904e-06
 Reference value :  6.82898e-06
 Reference value :  6.98989e-06
 Reference value :  7.00001e-06
 Reference value :  7.00003e-06
 Reference value :  7.00010e-06
 Reference value :  7.00011e-06
 Reference value :  7.00015e-06
 Reference value :  7.00034e-06
 Reference value :  7.00059e-06
 Reference value :  7.00095e-06
 Reference value :  7.00158e-06
 Reference value :  7.00216e-06
 Reference value :  7.00265e-06
 Reference value :  7.00379e-06
 Reference value :  7.00445e-06
 Reference value :  7.00502e-06
 Reference value :  7.00563e-06
 Reference value :  7.00625e-06
 Reference value :  7.00780e-06
 Reference value :  7.00882e-06
 Reference value :  7.01025e-06
 Reference value :  7.01168e-06
 Reference value :  7.01297e-06
 Reference value :  7.01400e-06
 Reference value :  7.01496e-06
 Reference value :  7.01606e-06
 Reference value :  7.01710e-06
 Reference value :  7.01820e-06
 Reference value :  7.02106e-06
 Reference value :  7.02610e-06
 Reference value :  7.02931e-06
 Reference value :  7.03358e-06
 Reference value :  7.03920e-06
 Reference value :  7.04306e-06
 Reference value :  7.04728e-06
 Reference value :  7.05351e-06
 Reference value :  7.06044e-06
 Reference value :  7.07531e-06
 Reference value :  7.10271e-06
 Reference value :  7.16880e-06
 Reference value :  7.25010e-06
 Reference value :  7.25013e-06
 Reference value :  7.25020e-06
 Reference value :  7.25021e-06
 Reference value :  7.25025e-06
 Reference value :  7.25032e-06
 Reference value :  7.25052e-06
 Reference value :  7.25067e-06
 Reference value :  7.25092e-06
 Reference value :  7.25129e-06
 Reference value :  7.25175e-06
 Reference value :  7.25221e-06
 Reference value :  7.25286e-06
 Reference value :  7.25372e-06
 Reference value :  7.25427e-06
 Reference value :  7.25490e-06
 Reference value :  7.25565e-06
 Reference value :  7.25739e-06
 Reference value :  7.26114e-06
 Reference value :  7.27207e-06
 Reference value :  7.30499e-06
 Reference value :  7.40774e-06
 Reference value :  7.50000e-06
 Reference value :  7.50001e-06
 Reference value :  7.50007e-06
 Reference value :  7.50010e-06
 Reference value :  7.50012e-06
 Reference value :  7.50022e-06
 Reference value :  7.50059e-06
 Reference value :  7.50095e-06
 Reference value :  7.50158e-06
 Reference value :  7.50216e-06
 Reference value :  7.50263e-06
 Reference value :  7.50317e-06
 Reference value :  7.50375e-06
 Reference value :  7.50441e-06
 Reference value :  7.50512e-06
 Reference value :  7.50604e-06
 Reference value :  7.50709e-06
 Reference value :  7.50798e-06
 Reference value :  7.50892e-06
 Reference value :  7.50992e-06
 Reference value :  7.51254e-06
 Reference value :  7.51756e-06
 Reference value :  7.52302e-06
 Reference value :  7.55146e-06
 Reference value :  7.66448e-06
 Reference value :  7.75011e-06
 Reference value :  7.75017e-06
 Reference value :  7.75021e-06
 Reference value :  7.75022e-06
 Reference value :  7.75031e-06
 Reference value :  7.75051e-06
 Reference value :  7.75092e-06
 Reference value :  7.75132e-06
 Reference value :  7.75176e-06
 Reference value :  7.75289e-06
 Reference value :  7.75377e-06
 Reference value :  7.75433e-06
 Reference value :  7.75497e-06
 Reference value :  7.75565e-06
 Reference value :  7.75635e-06
 Reference value :  7.75718e-06
 Reference value :  7.75814e-06
 Reference value :  7.75927e-06
 Reference value :  7.76190e-06
 Reference value :  7.76682e-06
 Reference value :  7.78129e-06
 Reference value :  7.79774e-06
 Reference value :  7.87033e-06
 Reference value :  8.00000e-06
 Reference value :  8.00001e-06
 Reference value :  8.00007e-06
 Reference value :  8.00011e-06
 Reference value :  8.00015e-06
 Reference value :  8.00034e-06
 Reference value :  8.00059e-06
 Reference value :  8.00095e-06
 Reference value :  8.00158e-06
 Reference value :  8.00216e-06
 Reference value :  8.00265e-06
 Reference value :  8.00321e-06
 Reference value :  8.00377e-06
 Reference value :  8.00443e-06
 Reference value :  8.00494e-06
 Reference value :  8.00605e-06
 Reference value :  8.00752e-06
 Reference value :  8.00834e-06
 Reference value :  8.01011e-06
 Reference value :  8.01112e-06
 Reference value :  8.01337e-06
 Reference value :  8.01484e-06
 Reference value :  8.01650e-06
 Reference value :  8.01885e-06
 Reference value :  8.02165e-06
 Reference value :  8.02466e-06
 Reference value :  8.02687e-06
 Reference value :  8.03178e-06
 Reference value :  8.03459e-06
 Reference value :  8.03876e-06
 Reference value :  8.04323e-06
 Reference value :  8.05708e-06
 Reference value :  8.14626e-06
 Reference value :  8.25011e-06
 Reference value :  8.25017e-06
 Reference value :  8.25020e-06
 Reference value :  8.25021e-06
 Reference value :  8.25022e-06
 Reference value :  8.25026e-06
 Reference value :  8.25032e-06
 Reference value :  8.25044e-06
 Reference value :  8.25057e-06
 Reference value :  8.25114e-06
 Reference value :  8.25154e-06
 Reference value :  8.25202e-06
 Reference value :  8.25325e-06
 Reference value :  8.25421e-06
 Reference value :  8.25533e-06
 Reference value :  8.25638e-06
 Reference value :  8.25886e-06
 Reference value :  8.26354e-06
 Reference value :  8.28170e-06
 Reference value :  8.35434e-06
 Reference value :  8.50000e-06
 Reference value :  8.50003e-06
 Reference value :  8.50010e-06
 Reference value :  8.50012e-06
 Reference value :  8.50022e-06
 Reference value :  8.50034e-06
 Reference value :  8.50059e-06
 Reference value :  8.50095e-06
 Reference value :  8.50159e-06
 Reference value :  8.50268e-06
 Reference value :  8.50392e-06
 Reference value :  8.50465e-06
 Reference value :  8.50536e-06
 Reference value :  8.50608e-06
 Reference value :  8.50766e-06
 Reference value :  8.51081e-06
 Reference value :  8.52008e-06
 Reference value :  8.52591e-06
 Reference value :  8.53021e-06
 Reference value :  8.53356e-06
 Reference value :  8.53665e-06
 Reference value :  8.53909e-06
 Reference value :  8.54346e-06
 Reference value :  8.54841e-06
 Reference value :  8.55587e-06
 Reference value :  8.56971e-06
 Reference value :  8.59881e-06
 Reference value :  8.66847e-06
 Reference value :  8.75010e-06
 Reference value :  8.75011e-06
 Reference value :  8.75017e-06
 Reference value :  8.75021e-06
 Reference value :  8.75026e-06
 Reference value :  8.75044e-06
 Reference value :  8.75058e-06
 Reference value :  8.75122e-06
 Reference value :  8.75164e-06
 Reference value :  8.75269e-06
 Reference value :  8.75345e-06
 Reference value :  8.75397e-06
 Reference value :  8.75457e-06
 Reference value :  8.75518e-06
 Reference value :  8.75676e-06
 Reference value :  8.75964e-06
 Reference value :  8.76662e-06
 Reference value :  8.77520e-06
 Reference value :  8.82666e-06
 Reference value :  9.00000e-06
No. of Data Rows : 1363
ngspice-44 done
