
Note: Compatibility modes selected: hs a


Circuit: ** sch_path: /home/samantha/cace/sar-adc-using-sky130-pdk/runs/run_2025-09-05_10-55-47/parameters/power/run_06/power_consumption.sch

option SCALE: Scale is set to 1e-06 for instance and model parameters
option SCALE: Scale is set to 1e-06 for instance and model parameters
option SCALE: Scale is set to 1e-06 for instance and model parameters
option SCALE: Scale is set to 1e-06 for instance and model parameters
Doing analysis at TEMP = 27.000000 and TNOM = 27.000000

Using KLU as Direct Linear Solver
 Reference value :  0.00000e+00
 Reference value :  1.00000e-12
 Reference value :  2.00000e-12
 Reference value :  4.00000e-12
 Reference value :  1.60000e-11
 Reference value :  3.20000e-11
 Reference value :  6.40000e-11
 Reference value :  1.00000e-10
 Reference value :  1.06400e-10
 Reference value :  1.44800e-10
 Reference value :  1.96000e-10
 Reference value :  2.98400e-10
 Reference value :  4.51199e-10
 Reference value :  7.56798e-10
 Reference value :  1.04164e-09
 Reference value :  1.50285e-09
 Reference value :  1.91785e-09
 Reference value :  2.38886e-09
 Reference value :  2.84752e-09
 Reference value :  3.24805e-09
 Reference value :  3.71857e-09
 Reference value :  4.21173e-09
 Reference value :  4.70522e-09
 Reference value :  5.25269e-09
 Reference value :  5.84529e-09
 Reference value :  6.64977e-09
 Reference value :  8.29544e-09
 Reference value :  9.24317e-09
 Reference value :  1.01510e-08
 Reference value :  1.12071e-08
 Reference value :  1.23548e-08
 Reference value :  1.32528e-08
 Reference value :  1.41364e-08
 Reference value :  1.49870e-08
 Reference value :  1.58917e-08
 Reference value :  1.91185e-08
 Reference value :  2.12290e-08
 Reference value :  2.31929e-08
 Reference value :  2.48380e-08
 Reference value :  2.58813e-08
 Reference value :  2.67983e-08
 Reference value :  2.89256e-08
 Reference value :  3.04806e-08
 Reference value :  3.26081e-08
 Reference value :  3.58626e-08
 Reference value :  3.92984e-08
 Reference value :  4.75256e-08
 Reference value :  6.11486e-08
 Reference value :  7.74416e-08
 Reference value :  1.01337e-07
 Reference value :  2.27798e-07
 Reference value :  2.50100e-07
 Reference value :  2.50110e-07
 Reference value :  2.50130e-07
 Reference value :  2.50170e-07
 Reference value :  2.50200e-07
 Reference value :  2.50220e-07
 Reference value :  2.50300e-07
 Reference value :  2.50406e-07
 Reference value :  2.50732e-07
 Reference value :  2.50955e-07
 Reference value :  2.51401e-07
 Reference value :  2.51899e-07
 Reference value :  2.52364e-07
 Reference value :  2.53019e-07
 Reference value :  2.53900e-07
 Reference value :  2.54509e-07
 Reference value :  2.55210e-07
 Reference value :  2.55955e-07
 Reference value :  2.56778e-07
 Reference value :  2.57729e-07
 Reference value :  2.59099e-07
 Reference value :  2.63537e-07
 Reference value :  2.74438e-07
 Reference value :  2.85698e-07
 Reference value :  2.96032e-07
 Reference value :  3.11024e-07
 Reference value :  3.21564e-07
 Reference value :  3.30268e-07
 Reference value :  3.36090e-07
 Reference value :  3.42222e-07
 Reference value :  3.55276e-07
 Reference value :  3.76440e-07
 Reference value :  4.18159e-07
 Reference value :  4.63532e-07
 Reference value :  5.00010e-07
 Reference value :  5.00030e-07
 Reference value :  5.00100e-07
 Reference value :  5.00124e-07
 Reference value :  5.00220e-07
 Reference value :  5.00520e-07
 Reference value :  5.01302e-07
 Reference value :  5.01767e-07
 Reference value :  5.02223e-07
 Reference value :  5.03345e-07
 Reference value :  5.04098e-07
 Reference value :  5.04905e-07
 Reference value :  5.06824e-07
 Reference value :  5.08223e-07
 Reference value :  5.09684e-07
 Reference value :  5.10998e-07
 Reference value :  5.12363e-07
 Reference value :  5.14145e-07
 Reference value :  5.16011e-07
 Reference value :  5.18049e-07
 Reference value :  5.22862e-07
 Reference value :  5.33413e-07
 Reference value :  5.61507e-07
 Reference value :  6.43801e-07
 Reference value :  7.50110e-07
 Reference value :  7.50130e-07
 Reference value :  7.50200e-07
 Reference value :  7.50224e-07
 Reference value :  7.50319e-07
 Reference value :  7.50445e-07
 Reference value :  7.50618e-07
 Reference value :  7.50857e-07
 Reference value :  7.51272e-07
 Reference value :  7.51759e-07
 Reference value :  7.52261e-07
 Reference value :  7.52834e-07
 Reference value :  7.53600e-07
 Reference value :  7.54163e-07
 Reference value :  7.54810e-07
 Reference value :  7.55391e-07
 Reference value :  7.56893e-07
 Reference value :  7.58707e-07
 Reference value :  7.59902e-07
 Reference value :  7.61137e-07
 Reference value :  7.62899e-07
 Reference value :  7.65286e-07
 Reference value :  7.74665e-07
 Reference value :  7.97470e-07
 Reference value :  8.55512e-07
 Reference value :  1.00000e-06
 Reference value :  1.00001e-06
 Reference value :  1.00007e-06
 Reference value :  1.00011e-06
 Reference value :  1.00016e-06
 Reference value :  1.00035e-06
 Reference value :  1.00086e-06
 Reference value :  1.00130e-06
 Reference value :  1.00224e-06
 Reference value :  1.00277e-06
 Reference value :  1.00403e-06
 Reference value :  1.00457e-06
 Reference value :  1.00521e-06
 Reference value :  1.00581e-06
 Reference value :  1.00648e-06
 Reference value :  1.00805e-06
 Reference value :  1.01046e-06
 Reference value :  1.01145e-06
 Reference value :  1.01254e-06
 Reference value :  1.01354e-06
 Reference value :  1.01467e-06
 Reference value :  1.01543e-06
 Reference value :  1.01733e-06
 Reference value :  1.01951e-06
 Reference value :  1.02077e-06
 Reference value :  1.02411e-06
 Reference value :  1.03961e-06
 Reference value :  1.07751e-06
 Reference value :  1.16214e-06
 Reference value :  1.20576e-06
 Reference value :  1.23590e-06
 Reference value :  1.25011e-06
 Reference value :  1.25013e-06
 Reference value :  1.25017e-06
 Reference value :  1.25021e-06
 Reference value :  1.25022e-06
 Reference value :  1.25032e-06
 Reference value :  1.25044e-06
 Reference value :  1.25085e-06
 Reference value :  1.25175e-06
 Reference value :  1.25226e-06
 Reference value :  1.25363e-06
 Reference value :  1.25421e-06
 Reference value :  1.25550e-06
 Reference value :  1.25618e-06
 Reference value :  1.25838e-06
 Reference value :  1.26277e-06
 Reference value :  1.27414e-06
 Reference value :  1.31961e-06
 Reference value :  1.38024e-06
 Reference value :  1.50000e-06
 Reference value :  1.50001e-06
 Reference value :  1.50003e-06
 Reference value :  1.50010e-06
 Reference value :  1.50012e-06
 Reference value :  1.50022e-06
 Reference value :  1.50052e-06
 Reference value :  1.50130e-06
 Reference value :  1.50176e-06
 Reference value :  1.50223e-06
 Reference value :  1.50276e-06
 Reference value :  1.50339e-06
 Reference value :  1.50462e-06
 Reference value :  1.50531e-06
 Reference value :  1.50628e-06
 Reference value :  1.50745e-06
 Reference value :  1.50856e-06
 Reference value :  1.50962e-06
 Reference value :  1.51230e-06
 Reference value :  1.51650e-06
 Reference value :  1.52828e-06
 Reference value :  1.56358e-06
 Reference value :  1.67575e-06
 Reference value :  1.75011e-06
 Reference value :  1.75017e-06
 Reference value :  1.75021e-06
 Reference value :  1.75026e-06
 Reference value :  1.75045e-06
 Reference value :  1.75086e-06
 Reference value :  1.75127e-06
 Reference value :  1.75176e-06
 Reference value :  1.75226e-06
 Reference value :  1.75284e-06
 Reference value :  1.75363e-06
 Reference value :  1.75420e-06
 Reference value :  1.75544e-06
 Reference value :  1.75608e-06
 Reference value :  1.75692e-06
 Reference value :  1.75784e-06
 Reference value :  1.75962e-06
 Reference value :  1.76188e-06
 Reference value :  1.76527e-06
 Reference value :  1.77128e-06
 Reference value :  1.80735e-06
 Reference value :  1.95162e-06
 Reference value :  2.00001e-06
 Reference value :  2.00003e-06
 Reference value :  2.00007e-06
 Reference value :  2.00010e-06
 Reference value :  2.00011e-06
 Reference value :  2.00016e-06
 Reference value :  2.00035e-06
 Reference value :  2.00052e-06
 Reference value :  2.00086e-06
 Reference value :  2.00130e-06
 Reference value :  2.00176e-06
 Reference value :  2.00223e-06
 Reference value :  2.00276e-06
 Reference value :  2.00340e-06
 Reference value :  2.00403e-06
 Reference value :  2.00457e-06
 Reference value :  2.00520e-06
 Reference value :  2.00580e-06
 Reference value :  2.00647e-06
 Reference value :  2.00715e-06
 Reference value :  2.00804e-06
 Reference value :  2.00914e-06
 Reference value :  2.01269e-06
 Reference value :  2.01416e-06
 Reference value :  2.01541e-06
 Reference value :  2.01661e-06
 Reference value :  2.01787e-06
 Reference value :  2.01896e-06
 Reference value :  2.02015e-06
 Reference value :  2.02144e-06
 Reference value :  2.02308e-06
 Reference value :  2.02502e-06
 Reference value :  2.02806e-06
 Reference value :  2.03377e-06
 Reference value :  2.05934e-06
 Reference value :  2.07562e-06
 Reference value :  2.09108e-06
 Reference value :  2.10248e-06
 Reference value :  2.11299e-06
 Reference value :  2.12070e-06
 Reference value :  2.12925e-06
 Reference value :  2.15078e-06
 Reference value :  2.16719e-06
 Reference value :  2.23279e-06
 Reference value :  2.25011e-06
 Reference value :  2.25013e-06
 Reference value :  2.25020e-06
 Reference value :  2.25021e-06
 Reference value :  2.25025e-06
 Reference value :  2.25032e-06
 Reference value :  2.25044e-06
 Reference value :  2.25061e-06
 Reference value :  2.25085e-06
 Reference value :  2.25175e-06
 Reference value :  2.25226e-06
 Reference value :  2.25283e-06
 Reference value :  2.25363e-06
 Reference value :  2.25418e-06
 Reference value :  2.25482e-06
 Reference value :  2.25545e-06
 Reference value :  2.25706e-06
 Reference value :  2.26000e-06
 Reference value :  2.26272e-06
 Reference value :  2.26616e-06
 Reference value :  2.27303e-06
 Reference value :  2.28677e-06
 Reference value :  2.31426e-06
 Reference value :  2.36924e-06
 Reference value :  2.47919e-06
 Reference value :  2.50001e-06
 Reference value :  2.50003e-06
 Reference value :  2.50010e-06
 Reference value :  2.50011e-06
 Reference value :  2.50012e-06
 Reference value :  2.50016e-06
 Reference value :  2.50022e-06
 Reference value :  2.50035e-06
 Reference value :  2.50052e-06
 Reference value :  2.50130e-06
 Reference value :  2.50176e-06
 Reference value :  2.50221e-06
 Reference value :  2.50270e-06
 Reference value :  2.50331e-06
 Reference value :  2.50404e-06
 Reference value :  2.50485e-06
 Reference value :  2.50558e-06
 Reference value :  2.50674e-06
 Reference value :  2.50756e-06
 Reference value :  2.50850e-06
 Reference value :  2.50950e-06
 Reference value :  2.51063e-06
 Reference value :  2.51178e-06
 Reference value :  2.51548e-06
 Reference value :  2.51917e-06
 Reference value :  2.53761e-06
 Reference value :  2.60675e-06
 Reference value :  2.69893e-06
 Reference value :  2.75011e-06
 Reference value :  2.75013e-06
 Reference value :  2.75020e-06
 Reference value :  2.75022e-06
 Reference value :  2.75032e-06
 Reference value :  2.75062e-06
 Reference value :  2.75127e-06
 Reference value :  2.75176e-06
 Reference value :  2.75226e-06
 Reference value :  2.75284e-06
 Reference value :  2.75361e-06
 Reference value :  2.75417e-06
 Reference value :  2.75540e-06
 Reference value :  2.75688e-06
 Reference value :  2.75779e-06
 Reference value :  2.75991e-06
 Reference value :  2.76290e-06
 Reference value :  2.76853e-06
 Reference value :  2.78276e-06
 Reference value :  2.81859e-06
 Reference value :  2.91044e-06
 Reference value :  3.00001e-06
 Reference value :  3.00003e-06
 Reference value :  3.00010e-06
 Reference value :  3.00012e-06
 Reference value :  3.00022e-06
 Reference value :  3.00052e-06
 Reference value :  3.00086e-06
 Reference value :  3.00130e-06
 Reference value :  3.00176e-06
 Reference value :  3.00223e-06
 Reference value :  3.00276e-06
 Reference value :  3.00340e-06
 Reference value :  3.00403e-06
 Reference value :  3.00457e-06
 Reference value :  3.00520e-06
 Reference value :  3.00581e-06
 Reference value :  3.00649e-06
 Reference value :  3.00718e-06
 Reference value :  3.00806e-06
 Reference value :  3.00908e-06
 Reference value :  3.01147e-06
 Reference value :  3.01255e-06
 Reference value :  3.01356e-06
 Reference value :  3.01469e-06
 Reference value :  3.01543e-06
 Reference value :  3.01626e-06
 Reference value :  3.01737e-06
 Reference value :  3.01851e-06
 Reference value :  3.01957e-06
 Reference value :  3.02087e-06
 Reference value :  3.02224e-06
 Reference value :  3.02426e-06
 Reference value :  3.03211e-06
 Reference value :  3.03844e-06
 Reference value :  3.06159e-06
 Reference value :  3.07222e-06
 Reference value :  3.07877e-06
 Reference value :  3.08504e-06
 Reference value :  3.10251e-06
 Reference value :  3.11141e-06
 Reference value :  3.12015e-06
 Reference value :  3.14134e-06
 Reference value :  3.17546e-06
 Reference value :  3.23872e-06
 Reference value :  3.25011e-06
 Reference value :  3.25017e-06
 Reference value :  3.25020e-06
 Reference value :  3.25021e-06
 Reference value :  3.25026e-06
 Reference value :  3.25045e-06
 Reference value :  3.25062e-06
 Reference value :  3.25086e-06
 Reference value :  3.25176e-06
 Reference value :  3.25226e-06
 Reference value :  3.25284e-06
 Reference value :  3.25364e-06
 Reference value :  3.25422e-06
 Reference value :  3.25489e-06
 Reference value :  3.25551e-06
 Reference value :  3.25618e-06
 Reference value :  3.25719e-06
 Reference value :  3.25839e-06
 Reference value :  3.26280e-06
 Reference value :  3.27411e-06
 Reference value :  3.31932e-06
 Reference value :  3.50000e-06
 Reference value :  3.50001e-06
 Reference value :  3.50007e-06
 Reference value :  3.50011e-06
 Reference value :  3.50012e-06
 Reference value :  3.50022e-06
 Reference value :  3.50052e-06
 Reference value :  3.50130e-06
 Reference value :  3.50223e-06
 Reference value :  3.50276e-06
 Reference value :  3.50339e-06
 Reference value :  3.50398e-06
 Reference value :  3.50462e-06
 Reference value :  3.50531e-06
 Reference value :  3.50628e-06
 Reference value :  3.50745e-06
 Reference value :  3.50856e-06
 Reference value :  3.50962e-06
 Reference value :  3.51229e-06
 Reference value :  3.51651e-06
 Reference value :  3.52833e-06
 Reference value :  3.56369e-06
 Reference value :  3.60263e-06
 Reference value :  3.75010e-06
 Reference value :  3.75011e-06
 Reference value :  3.75017e-06
 Reference value :  3.75020e-06
 Reference value :  3.75022e-06
 Reference value :  3.75032e-06
 Reference value :  3.75045e-06
 Reference value :  3.75086e-06
 Reference value :  3.75176e-06
 Reference value :  3.75226e-06
 Reference value :  3.75283e-06
 Reference value :  3.75363e-06
 Reference value :  3.75420e-06
 Reference value :  3.75486e-06
 Reference value :  3.75544e-06
 Reference value :  3.75608e-06
 Reference value :  3.75692e-06
 Reference value :  3.75962e-06
 Reference value :  3.76527e-06
 Reference value :  3.77128e-06
 Reference value :  3.80732e-06
 Reference value :  3.95148e-06
 Reference value :  4.00000e-06
 Reference value :  4.00003e-06
 Reference value :  4.00007e-06
 Reference value :  4.00011e-06
 Reference value :  4.00012e-06
 Reference value :  4.00022e-06
 Reference value :  4.00035e-06
 Reference value :  4.00052e-06
 Reference value :  4.00086e-06
 Reference value :  4.00130e-06
 Reference value :  4.00223e-06
 Reference value :  4.00276e-06
 Reference value :  4.00340e-06
 Reference value :  4.00403e-06
 Reference value :  4.00457e-06
 Reference value :  4.00520e-06
 Reference value :  4.00580e-06
 Reference value :  4.00647e-06
 Reference value :  4.00804e-06
 Reference value :  4.01087e-06
 Reference value :  4.01271e-06
 Reference value :  4.01432e-06
 Reference value :  4.01561e-06
 Reference value :  4.01684e-06
 Reference value :  4.01811e-06
 Reference value :  4.01923e-06
 Reference value :  4.02043e-06
 Reference value :  4.02172e-06
 Reference value :  4.02550e-06
 Reference value :  4.03453e-06
 Reference value :  4.04710e-06
 Reference value :  4.05366e-06
 Reference value :  4.05867e-06
 Reference value :  4.06290e-06
 Reference value :  4.06752e-06
 Reference value :  4.07308e-06
 Reference value :  4.07894e-06
 Reference value :  4.09164e-06
 Reference value :  4.11977e-06
 Reference value :  4.18769e-06
 Reference value :  4.25011e-06
 Reference value :  4.25013e-06
 Reference value :  4.25020e-06
 Reference value :  4.25021e-06
 Reference value :  4.25025e-06
 Reference value :  4.25032e-06
 Reference value :  4.25040e-06
 Reference value :  4.25058e-06
 Reference value :  4.25078e-06
 Reference value :  4.25158e-06
 Reference value :  4.25211e-06
 Reference value :  4.25266e-06
 Reference value :  4.25339e-06
 Reference value :  4.25418e-06
 Reference value :  4.25477e-06
 Reference value :  4.25545e-06
 Reference value :  4.25610e-06
 Reference value :  4.25695e-06
 Reference value :  4.25960e-06
 Reference value :  4.26528e-06
 Reference value :  4.28217e-06
 Reference value :  4.33427e-06
 Reference value :  4.49958e-06
 Reference value :  4.50001e-06
 Reference value :  4.50003e-06
 Reference value :  4.50010e-06
 Reference value :  4.50012e-06
 Reference value :  4.50022e-06
 Reference value :  4.50035e-06
 Reference value :  4.50097e-06
 Reference value :  4.50156e-06
 Reference value :  4.50212e-06
 Reference value :  4.50257e-06
 Reference value :  4.50371e-06
 Reference value :  4.50444e-06
 Reference value :  4.50512e-06
 Reference value :  4.50589e-06
 Reference value :  4.50691e-06
 Reference value :  4.50764e-06
 Reference value :  4.50848e-06
 Reference value :  4.50951e-06
 Reference value :  4.51060e-06
 Reference value :  4.51165e-06
 Reference value :  4.51292e-06
 Reference value :  4.51697e-06
 Reference value :  4.52751e-06
 Reference value :  4.53927e-06
 Reference value :  4.59896e-06
 Reference value :  4.67854e-06
 Reference value :  4.75011e-06
 Reference value :  4.75017e-06
 Reference value :  4.75021e-06
 Reference value :  4.75022e-06
 Reference value :  4.75025e-06
 Reference value :  4.75040e-06
 Reference value :  4.75058e-06
 Reference value :  4.75078e-06
 Reference value :  4.75105e-06
 Reference value :  4.75157e-06
 Reference value :  4.75211e-06
 Reference value :  4.75266e-06
 Reference value :  4.75339e-06
 Reference value :  4.75421e-06
 Reference value :  4.75480e-06
 Reference value :  4.75549e-06
 Reference value :  4.75623e-06
 Reference value :  4.75711e-06
 Reference value :  4.75805e-06
 Reference value :  4.75901e-06
 Reference value :  4.76014e-06
 Reference value :  4.76141e-06
 Reference value :  4.76563e-06
 Reference value :  4.77526e-06
 Reference value :  4.79858e-06
 Reference value :  4.85715e-06
 Reference value :  4.91517e-06
 Reference value :  5.00000e-06
 Reference value :  5.00001e-06
 Reference value :  5.00003e-06
 Reference value :  5.00007e-06
 Reference value :  5.00010e-06
 Reference value :  5.00011e-06
 Reference value :  5.00012e-06
 Reference value :  5.00022e-06
 Reference value :  5.00035e-06
 Reference value :  5.00060e-06
 Reference value :  5.00097e-06
 Reference value :  5.00156e-06
 Reference value :  5.00211e-06
 Reference value :  5.00259e-06
 Reference value :  5.00315e-06
 Reference value :  5.00374e-06
 Reference value :  5.00442e-06
 Reference value :  5.00498e-06
 Reference value :  5.00559e-06
 Reference value :  5.00610e-06
 Reference value :  5.00669e-06
 Reference value :  5.00742e-06
 Reference value :  5.00824e-06
 Reference value :  5.00923e-06
 Reference value :  5.01078e-06
 Reference value :  5.01179e-06
 Reference value :  5.01293e-06
 Reference value :  5.01417e-06
 Reference value :  5.01513e-06
 Reference value :  5.01608e-06
 Reference value :  5.01727e-06
 Reference value :  5.01836e-06
 Reference value :  5.01955e-06
 Reference value :  5.02094e-06
 Reference value :  5.02219e-06
 Reference value :  5.02449e-06
 Reference value :  5.02659e-06
 Reference value :  5.03004e-06
 Reference value :  5.03316e-06
 Reference value :  5.03667e-06
 Reference value :  5.03958e-06
 Reference value :  5.04217e-06
 Reference value :  5.04465e-06
 Reference value :  5.04997e-06
 Reference value :  5.05958e-06
 Reference value :  5.08191e-06
 Reference value :  5.14099e-06
 Reference value :  5.24086e-06
 Reference value :  5.25011e-06
 Reference value :  5.25013e-06
 Reference value :  5.25020e-06
 Reference value :  5.25022e-06
 Reference value :  5.25025e-06
 Reference value :  5.25040e-06
 Reference value :  5.25058e-06
 Reference value :  5.25075e-06
 Reference value :  5.25104e-06
 Reference value :  5.25152e-06
 Reference value :  5.25208e-06
 Reference value :  5.25259e-06
 Reference value :  5.25336e-06
 Reference value :  5.25420e-06
 Reference value :  5.25480e-06
 Reference value :  5.25549e-06
 Reference value :  5.25617e-06
 Reference value :  5.25700e-06
 Reference value :  5.25790e-06
 Reference value :  5.26198e-06
 Reference value :  5.27138e-06
 Reference value :  5.30026e-06
 Reference value :  5.38986e-06
 Reference value :  5.50000e-06
 Reference value :  5.50003e-06
 Reference value :  5.50010e-06
 Reference value :  5.50011e-06
 Reference value :  5.50016e-06
 Reference value :  5.50035e-06
 Reference value :  5.50060e-06
 Reference value :  5.50097e-06
 Reference value :  5.50156e-06
 Reference value :  5.50212e-06
 Reference value :  5.50259e-06
 Reference value :  5.50315e-06
 Reference value :  5.50367e-06
 Reference value :  5.50430e-06
 Reference value :  5.50498e-06
 Reference value :  5.50563e-06
 Reference value :  5.50663e-06
 Reference value :  5.50737e-06
 Reference value :  5.50825e-06
 Reference value :  5.50923e-06
 Reference value :  5.51028e-06
 Reference value :  5.51125e-06
 Reference value :  5.51237e-06
 Reference value :  5.51364e-06
 Reference value :  5.52126e-06
 Reference value :  5.54970e-06
 Reference value :  5.58763e-06
 Reference value :  5.66349e-06
 Reference value :  5.75011e-06
 Reference value :  5.75017e-06
 Reference value :  5.75020e-06
 Reference value :  5.75022e-06
 Reference value :  5.75025e-06
 Reference value :  5.75032e-06
 Reference value :  5.75040e-06
 Reference value :  5.75058e-06
 Reference value :  5.75105e-06
 Reference value :  5.75211e-06
 Reference value :  5.75266e-06
 Reference value :  5.75340e-06
 Reference value :  5.75422e-06
 Reference value :  5.75481e-06
 Reference value :  5.75550e-06
 Reference value :  5.75625e-06
 Reference value :  5.75712e-06
 Reference value :  5.75971e-06
 Reference value :  5.76570e-06
 Reference value :  5.78350e-06
 Reference value :  5.83736e-06
 Reference value :  6.00000e-06
 Reference value :  6.00001e-06
 Reference value :  6.00007e-06
 Reference value :  6.00011e-06
 Reference value :  6.00012e-06
 Reference value :  6.00022e-06
 Reference value :  6.00035e-06
 Reference value :  6.00060e-06
 Reference value :  6.00097e-06
 Reference value :  6.00156e-06
 Reference value :  6.00211e-06
 Reference value :  6.00259e-06
 Reference value :  6.00315e-06
 Reference value :  6.00374e-06
 Reference value :  6.00441e-06
 Reference value :  6.00498e-06
 Reference value :  6.00559e-06
 Reference value :  6.00609e-06
 Reference value :  6.00754e-06
 Reference value :  6.00832e-06
 Reference value :  6.00988e-06
 Reference value :  6.01170e-06
 Reference value :  6.01325e-06
 Reference value :  6.01486e-06
 Reference value :  6.01601e-06
 Reference value :  6.01706e-06
 Reference value :  6.01822e-06
 Reference value :  6.01943e-06
 Reference value :  6.02081e-06
 Reference value :  6.02208e-06
 Reference value :  6.02415e-06
 Reference value :  6.03063e-06
 Reference value :  6.03634e-06
 Reference value :  6.04190e-06
 Reference value :  6.04962e-06
 Reference value :  6.05803e-06
 Reference value :  6.06376e-06
 Reference value :  6.06968e-06
 Reference value :  6.07887e-06
 Reference value :  6.09579e-06
 Reference value :  6.12333e-06
 Reference value :  6.17933e-06
 Reference value :  6.25010e-06
 Reference value :  6.25011e-06
 Reference value :  6.25013e-06
 Reference value :  6.25017e-06
 Reference value :  6.25021e-06
 Reference value :  6.25025e-06
 Reference value :  6.25040e-06
 Reference value :  6.25057e-06
 Reference value :  6.25075e-06
 Reference value :  6.25103e-06
 Reference value :  6.25152e-06
 Reference value :  6.25258e-06
 Reference value :  6.25413e-06
 Reference value :  6.25472e-06
 Reference value :  6.25539e-06
 Reference value :  6.25689e-06
 Reference value :  6.25951e-06
 Reference value :  6.26172e-06
 Reference value :  6.27055e-06
 Reference value :  6.29841e-06
 Reference value :  6.38661e-06
 Reference value :  6.50000e-06
 Reference value :  6.50003e-06
 Reference value :  6.50007e-06
 Reference value :  6.50010e-06
 Reference value :  6.50011e-06
 Reference value :  6.50012e-06
 Reference value :  6.50022e-06
 Reference value :  6.50060e-06
 Reference value :  6.50097e-06
 Reference value :  6.50156e-06
 Reference value :  6.50212e-06
 Reference value :  6.50257e-06
 Reference value :  6.50371e-06
 Reference value :  6.50443e-06
 Reference value :  6.50590e-06
 Reference value :  6.50765e-06
 Reference value :  6.50953e-06
 Reference value :  6.51167e-06
 Reference value :  6.51294e-06
 Reference value :  6.51696e-06
 Reference value :  6.52726e-06
 Reference value :  6.55774e-06
 Reference value :  6.67239e-06
 Reference value :  6.75011e-06
 Reference value :  6.75017e-06
 Reference value :  6.75021e-06
 Reference value :  6.75025e-06
 Reference value :  6.75040e-06
 Reference value :  6.75078e-06
 Reference value :  6.75105e-06
 Reference value :  6.75157e-06
 Reference value :  6.75210e-06
 Reference value :  6.75266e-06
 Reference value :  6.75339e-06
 Reference value :  6.75421e-06
 Reference value :  6.75480e-06
 Reference value :  6.75624e-06
 Reference value :  6.75709e-06
 Reference value :  6.75898e-06
 Reference value :  6.76013e-06
 Reference value :  6.76138e-06
 Reference value :  6.76557e-06
 Reference value :  6.76915e-06
 Reference value :  6.78360e-06
 Reference value :  6.79806e-06
 Reference value :  6.82009e-06
 Reference value :  6.91205e-06
 Reference value :  7.00001e-06
 Reference value :  7.00003e-06
 Reference value :  7.00010e-06
 Reference value :  7.00011e-06
 Reference value :  7.00012e-06
 Reference value :  7.00022e-06
 Reference value :  7.00035e-06
 Reference value :  7.00060e-06
 Reference value :  7.00156e-06
 Reference value :  7.00259e-06
 Reference value :  7.00315e-06
 Reference value :  7.00374e-06
 Reference value :  7.00442e-06
 Reference value :  7.00498e-06
 Reference value :  7.00559e-06
 Reference value :  7.00610e-06
 Reference value :  7.00669e-06
 Reference value :  7.00824e-06
 Reference value :  7.00923e-06
 Reference value :  7.01078e-06
 Reference value :  7.01177e-06
 Reference value :  7.01292e-06
 Reference value :  7.01415e-06
 Reference value :  7.01511e-06
 Reference value :  7.01605e-06
 Reference value :  7.01722e-06
 Reference value :  7.01831e-06
 Reference value :  7.01950e-06
 Reference value :  7.02083e-06
 Reference value :  7.02401e-06
 Reference value :  7.03021e-06
 Reference value :  7.04567e-06
 Reference value :  7.06326e-06
 Reference value :  7.08703e-06
 Reference value :  7.10845e-06
 Reference value :  7.12403e-06
 Reference value :  7.13885e-06
 Reference value :  7.16090e-06
 Reference value :  7.21510e-06
 Reference value :  7.24931e-06
 Reference value :  7.25010e-06
 Reference value :  7.25013e-06
 Reference value :  7.25017e-06
 Reference value :  7.25020e-06
 Reference value :  7.25021e-06
 Reference value :  7.25025e-06
 Reference value :  7.25032e-06
 Reference value :  7.25058e-06
 Reference value :  7.25104e-06
 Reference value :  7.25152e-06
 Reference value :  7.25208e-06
 Reference value :  7.25259e-06
 Reference value :  7.25336e-06
 Reference value :  7.25420e-06
 Reference value :  7.25480e-06
 Reference value :  7.25617e-06
 Reference value :  7.25700e-06
 Reference value :  7.25967e-06
 Reference value :  7.26546e-06
 Reference value :  7.28223e-06
 Reference value :  7.30006e-06
 Reference value :  7.33258e-06
 Reference value :  7.48738e-06
 Reference value :  7.50001e-06
 Reference value :  7.50007e-06
 Reference value :  7.50011e-06
 Reference value :  7.50012e-06
 Reference value :  7.50022e-06
 Reference value :  7.50060e-06
 Reference value :  7.50097e-06
 Reference value :  7.50156e-06
 Reference value :  7.50212e-06
 Reference value :  7.50259e-06
 Reference value :  7.50315e-06
 Reference value :  7.50367e-06
 Reference value :  7.50430e-06
 Reference value :  7.50498e-06
 Reference value :  7.50563e-06
 Reference value :  7.50663e-06
 Reference value :  7.50737e-06
 Reference value :  7.50825e-06
 Reference value :  7.50923e-06
 Reference value :  7.51028e-06
 Reference value :  7.51125e-06
 Reference value :  7.51237e-06
 Reference value :  7.51364e-06
 Reference value :  7.52125e-06
 Reference value :  7.53064e-06
 Reference value :  7.58699e-06
 Reference value :  7.75010e-06
 Reference value :  7.75011e-06
 Reference value :  7.75013e-06
 Reference value :  7.75017e-06
 Reference value :  7.75020e-06
 Reference value :  7.75022e-06
 Reference value :  7.75032e-06
 Reference value :  7.75058e-06
 Reference value :  7.75105e-06
 Reference value :  7.75158e-06
 Reference value :  7.75211e-06
 Reference value :  7.75266e-06
 Reference value :  7.75340e-06
 Reference value :  7.75422e-06
 Reference value :  7.75481e-06
 Reference value :  7.75625e-06
 Reference value :  7.75712e-06
 Reference value :  7.75970e-06
 Reference value :  7.76569e-06
 Reference value :  7.77230e-06
 Reference value :  7.80249e-06
 Reference value :  7.89549e-06
 Reference value :  8.00000e-06
 Reference value :  8.00001e-06
 Reference value :  8.00003e-06
 Reference value :  8.00007e-06
 Reference value :  8.00010e-06
 Reference value :  8.00012e-06
 Reference value :  8.00022e-06
 Reference value :  8.00035e-06
 Reference value :  8.00060e-06
 Reference value :  8.00097e-06
 Reference value :  8.00156e-06
 Reference value :  8.00211e-06
 Reference value :  8.00259e-06
 Reference value :  8.00315e-06
 Reference value :  8.00374e-06
 Reference value :  8.00441e-06
 Reference value :  8.00497e-06
 Reference value :  8.00558e-06
 Reference value :  8.00609e-06
 Reference value :  8.00668e-06
 Reference value :  8.00831e-06
 Reference value :  8.00912e-06
 Reference value :  8.01003e-06
 Reference value :  8.01109e-06
 Reference value :  8.01223e-06
 Reference value :  8.01907e-06
 Reference value :  8.04462e-06
 Reference value :  8.14636e-06
 Reference value :  8.25010e-06
 Reference value :  8.25011e-06
 Reference value :  8.25017e-06
 Reference value :  8.25020e-06
 Reference value :  8.25022e-06
 Reference value :  8.25032e-06
 Reference value :  8.25062e-06
 Reference value :  8.25119e-06
 Reference value :  8.25167e-06
 Reference value :  8.25219e-06
 Reference value :  8.25275e-06
 Reference value :  8.25350e-06
 Reference value :  8.25438e-06
 Reference value :  8.25531e-06
 Reference value :  8.25628e-06
 Reference value :  8.25896e-06
 Reference value :  8.26357e-06
 Reference value :  8.27420e-06
 Reference value :  8.30621e-06
 Reference value :  8.34698e-06
 Reference value :  8.50000e-06
No. of Data Rows : 1287
ngspice-44 done
