
Note: Compatibility modes selected: hs a


Circuit: ** sch_path: /home/ece/cace/sar-adc-using-sky130-pdk/runs/run_2025-10-12_02-21-37/parameters/dnl/run_0/sar_output_dnl.sch

option SCALE: Scale is set to 1e-06 for instance and model parameters
option SCALE: Scale is set to 1e-06 for instance and model parameters
option SCALE: Scale is set to 1e-06 for instance and model parameters
option SCALE: Scale is set to 1e-06 for instance and model parameters
Doing analysis at TEMP = -40.000000 and TNOM = 27.000000

Using KLU as Direct Linear Solver
Operating point simulation skipped by 'uic',
  now using transient initial conditions.
 Reference value :  1.00000e-12
 Reference value :  1.02772e-12
 Reference value :  1.08316e-12
 Reference value :  1.19404e-12
 Reference value :  1.33848e-12
 Reference value :  1.62736e-12
 Reference value :  2.20511e-12
 Reference value :  3.05256e-12
 Reference value :  3.95867e-12
 Reference value :  5.17564e-12
 Reference value :  6.90504e-12
 Reference value :  1.00797e-11
 Reference value :  1.36060e-11
 Reference value :  2.05128e-11
 Reference value :  2.72276e-11
 Reference value :  3.63232e-11
 Reference value :  4.74913e-11
 Reference value :  6.33570e-11
 Reference value :  8.32228e-11
 Reference value :  1.00000e-10
 Reference value :  1.01387e-10
 Reference value :  1.04161e-10
 Reference value :  1.09708e-10
 Reference value :  1.20804e-10
 Reference value :  1.42994e-10
 Reference value :  1.87376e-10
 Reference value :  2.76139e-10
 Reference value :  4.27669e-10
 Reference value :  6.03834e-10
 Reference value :  8.81917e-10
 Reference value :  1.26630e-09
 Reference value :  1.65659e-09
 Reference value :  2.24841e-09
 Reference value :  2.86815e-09
 Reference value :  3.76351e-09
 Reference value :  4.60360e-09
 Reference value :  5.29560e-09
 Reference value :  6.12355e-09
 Reference value :  7.11632e-09
 Reference value :  8.15815e-09
 Reference value :  9.45098e-09
 Reference value :  1.10620e-08
 Reference value :  1.26103e-08
 Reference value :  1.53008e-08
 Reference value :  1.81500e-08
 Reference value :  2.08510e-08
 Reference value :  2.30487e-08
 Reference value :  2.50577e-08
 Reference value :  2.72072e-08
 Reference value :  2.95456e-08
 Reference value :  3.30028e-08
 Reference value :  3.74465e-08
 Reference value :  4.34376e-08
 Reference value :  4.99978e-08
 Reference value :  5.64315e-08
 Reference value :  6.26493e-08
 Reference value :  6.66319e-08
 Reference value :  7.06707e-08
 Reference value :  7.80189e-08
 Reference value :  8.59598e-08
 Reference value :  9.59265e-08
 Reference value :  1.05755e-07
 Reference value :  1.25202e-07
 Reference value :  1.56775e-07
 Reference value :  2.16565e-07
 Reference value :  2.50100e-07
 Reference value :  2.50110e-07
 Reference value :  2.50130e-07
 Reference value :  2.50170e-07
 Reference value :  2.50200e-07
 Reference value :  2.50201e-07
 Reference value :  2.50202e-07
 Reference value :  2.50204e-07
 Reference value :  2.50208e-07
 Reference value :  2.50218e-07
 Reference value :  2.50236e-07
 Reference value :  2.50272e-07
 Reference value :  2.50344e-07
 Reference value :  2.50445e-07
 Reference value :  2.50592e-07
 Reference value :  2.50774e-07
 Reference value :  2.51119e-07
 Reference value :  2.51478e-07
 Reference value :  2.51977e-07
 Reference value :  2.52498e-07
 Reference value :  2.53149e-07
 Reference value :  2.53968e-07
 Reference value :  2.54658e-07
 Reference value :  2.55433e-07
 Reference value :  2.56139e-07
 Reference value :  2.56951e-07
 Reference value :  2.57736e-07
 Reference value :  2.59008e-07
 Reference value :  2.60927e-07
 Reference value :  2.62731e-07
 Reference value :  2.66043e-07
 Reference value :  2.70140e-07
 Reference value :  2.78334e-07
 Reference value :  2.94722e-07
 Reference value :  3.26231e-07
 Reference value :  3.89249e-07
 Reference value :  5.00000e-07
 Reference value :  5.00010e-07
 Reference value :  5.00030e-07
 Reference value :  5.00070e-07
 Reference value :  5.00100e-07
 Reference value :  5.00104e-07
 Reference value :  5.00113e-07
 Reference value :  5.00130e-07
 Reference value :  5.00165e-07
 Reference value :  5.00235e-07
 Reference value :  5.00364e-07
 Reference value :  5.00578e-07
 Reference value :  5.01005e-07
 Reference value :  5.01505e-07
 Reference value :  5.02036e-07
 Reference value :  5.02521e-07
 Reference value :  5.03090e-07
 Reference value :  5.03710e-07
 Reference value :  5.04475e-07
 Reference value :  5.05266e-07
 Reference value :  5.06059e-07
 Reference value :  5.07285e-07
 Reference value :  5.08435e-07
 Reference value :  5.10198e-07
 Reference value :  5.12308e-07
 Reference value :  5.13855e-07
 Reference value :  5.15570e-07
 Reference value :  5.17394e-07
 Reference value :  5.19568e-07
 Reference value :  5.21778e-07
 Reference value :  5.24134e-07
 Reference value :  5.28483e-07
 Reference value :  5.34580e-07
 Reference value :  5.42844e-07
 Reference value :  5.59370e-07
 Reference value :  5.83255e-07
 Reference value :  6.25612e-07
 Reference value :  7.10324e-07
 Reference value :  7.50100e-07
 Reference value :  7.50110e-07
 Reference value :  7.50130e-07
 Reference value :  7.50170e-07
 Reference value :  7.50200e-07
 Reference value :  7.50201e-07
 Reference value :  7.50202e-07
 Reference value :  7.50206e-07
 Reference value :  7.50212e-07
 Reference value :  7.50225e-07
 Reference value :  7.50251e-07
 Reference value :  7.50303e-07
 Reference value :  7.50407e-07
 Reference value :  7.50615e-07
 Reference value :  7.50972e-07
 Reference value :  7.51347e-07
 Reference value :  7.51825e-07
 Reference value :  7.52356e-07
 Reference value :  7.53081e-07
 Reference value :  7.53919e-07
 Reference value :  7.54680e-07
 Reference value :  7.55563e-07
 Reference value :  7.56329e-07
 Reference value :  7.57134e-07
 Reference value :  7.58019e-07
 Reference value :  7.59018e-07
 Reference value :  7.60060e-07
 Reference value :  7.61394e-07
 Reference value :  7.63079e-07
 Reference value :  7.65168e-07
 Reference value :  7.67931e-07
 Reference value :  7.71837e-07
 Reference value :  7.79649e-07
 Reference value :  7.91727e-07
 Reference value :  8.14520e-07
 Reference value :  8.60106e-07
 Reference value :  9.51278e-07
 Reference value :  1.00000e-06
 Reference value :  1.00001e-06
 Reference value :  1.00003e-06
 Reference value :  1.00007e-06
 Reference value :  1.00010e-06
 Reference value :  1.00010e-06
 Reference value :  1.00011e-06
 Reference value :  1.00013e-06
 Reference value :  1.00017e-06
 Reference value :  1.00023e-06
 Reference value :  1.00036e-06
 Reference value :  1.00058e-06
 Reference value :  1.00100e-06
 Reference value :  1.00150e-06
 Reference value :  1.00203e-06
 Reference value :  1.00254e-06
 Reference value :  1.00314e-06
 Reference value :  1.00371e-06
 Reference value :  1.00450e-06
 Reference value :  1.00523e-06
 Reference value :  1.00594e-06
 Reference value :  1.00680e-06
 Reference value :  1.00769e-06
 Reference value :  1.00851e-06
 Reference value :  1.00939e-06
 Reference value :  1.01049e-06
 Reference value :  1.01198e-06
 Reference value :  1.01394e-06
 Reference value :  1.01528e-06
 Reference value :  1.01678e-06
 Reference value :  1.01821e-06
 Reference value :  1.01962e-06
 Reference value :  1.02066e-06
 Reference value :  1.02178e-06
 Reference value :  1.02314e-06
 Reference value :  1.02463e-06
 Reference value :  1.02612e-06
 Reference value :  1.02847e-06
 Reference value :  1.03093e-06
 Reference value :  1.03586e-06
 Reference value :  1.04338e-06
 Reference value :  1.05558e-06
 Reference value :  1.07768e-06
 Reference value :  1.11851e-06
 Reference value :  1.18349e-06
 Reference value :  1.25010e-06
 Reference value :  1.25011e-06
 Reference value :  1.25013e-06
 Reference value :  1.25017e-06
 Reference value :  1.25020e-06
 Reference value :  1.25020e-06
 Reference value :  1.25020e-06
 Reference value :  1.25021e-06
 Reference value :  1.25021e-06
 Reference value :  1.25023e-06
 Reference value :  1.25025e-06
 Reference value :  1.25031e-06
 Reference value :  1.25041e-06
 Reference value :  1.25062e-06
 Reference value :  1.25098e-06
 Reference value :  1.25135e-06
 Reference value :  1.25182e-06
 Reference value :  1.25236e-06
 Reference value :  1.25304e-06
 Reference value :  1.25389e-06
 Reference value :  1.25466e-06
 Reference value :  1.25551e-06
 Reference value :  1.25641e-06
 Reference value :  1.25724e-06
 Reference value :  1.25874e-06
 Reference value :  1.26009e-06
 Reference value :  1.26221e-06
 Reference value :  1.26503e-06
 Reference value :  1.26960e-06
 Reference value :  1.27875e-06
 Reference value :  1.29292e-06
 Reference value :  1.32025e-06
 Reference value :  1.36750e-06
 Reference value :  1.43077e-06
 Reference value :  1.50000e-06
 Reference value :  1.50001e-06
 Reference value :  1.50003e-06
 Reference value :  1.50007e-06
 Reference value :  1.50010e-06
 Reference value :  1.50010e-06
 Reference value :  1.50011e-06
 Reference value :  1.50013e-06
 Reference value :  1.50016e-06
 Reference value :  1.50023e-06
 Reference value :  1.50036e-06
 Reference value :  1.50056e-06
 Reference value :  1.50096e-06
 Reference value :  1.50146e-06
 Reference value :  1.50198e-06
 Reference value :  1.50245e-06
 Reference value :  1.50303e-06
 Reference value :  1.50356e-06
 Reference value :  1.50423e-06
 Reference value :  1.50495e-06
 Reference value :  1.50577e-06
 Reference value :  1.50682e-06
 Reference value :  1.50790e-06
 Reference value :  1.50936e-06
 Reference value :  1.51039e-06
 Reference value :  1.51155e-06
 Reference value :  1.51276e-06
 Reference value :  1.51424e-06
 Reference value :  1.51573e-06
 Reference value :  1.51740e-06
 Reference value :  1.52069e-06
 Reference value :  1.52519e-06
 Reference value :  1.53416e-06
 Reference value :  1.55087e-06
 Reference value :  1.58081e-06
 Reference value :  1.64068e-06
 Reference value :  1.75010e-06
 Reference value :  1.75011e-06
 Reference value :  1.75013e-06
 Reference value :  1.75017e-06
 Reference value :  1.75020e-06
 Reference value :  1.75020e-06
 Reference value :  1.75020e-06
 Reference value :  1.75021e-06
 Reference value :  1.75021e-06
 Reference value :  1.75023e-06
 Reference value :  1.75025e-06
 Reference value :  1.75030e-06
 Reference value :  1.75041e-06
 Reference value :  1.75062e-06
 Reference value :  1.75097e-06
 Reference value :  1.75134e-06
 Reference value :  1.75181e-06
 Reference value :  1.75234e-06
 Reference value :  1.75304e-06
 Reference value :  1.75386e-06
 Reference value :  1.75464e-06
 Reference value :  1.75553e-06
 Reference value :  1.75638e-06
 Reference value :  1.75717e-06
 Reference value :  1.75808e-06
 Reference value :  1.75910e-06
 Reference value :  1.76036e-06
 Reference value :  1.76156e-06
 Reference value :  1.76343e-06
 Reference value :  1.76550e-06
 Reference value :  1.76868e-06
 Reference value :  1.77335e-06
 Reference value :  1.78270e-06
 Reference value :  1.80139e-06
 Reference value :  1.83730e-06
 Reference value :  1.90910e-06
 Reference value :  2.00000e-06
 Reference value :  2.00001e-06
 Reference value :  2.00003e-06
 Reference value :  2.00007e-06
 Reference value :  2.00010e-06
 Reference value :  2.00010e-06
 Reference value :  2.00011e-06
 Reference value :  2.00013e-06
 Reference value :  2.00016e-06
 Reference value :  2.00023e-06
 Reference value :  2.00036e-06
 Reference value :  2.00056e-06
 Reference value :  2.00096e-06
 Reference value :  2.00145e-06
 Reference value :  2.00198e-06
 Reference value :  2.00248e-06
 Reference value :  2.00302e-06
 Reference value :  2.00358e-06
 Reference value :  2.00432e-06
 Reference value :  2.00499e-06
 Reference value :  2.00563e-06
 Reference value :  2.00631e-06
 Reference value :  2.00699e-06
 Reference value :  2.00773e-06
 Reference value :  2.00846e-06
 Reference value :  2.00931e-06
 Reference value :  2.01033e-06
 Reference value :  2.01182e-06
 Reference value :  2.01401e-06
 Reference value :  2.01544e-06
 Reference value :  2.01704e-06
 Reference value :  2.01854e-06
 Reference value :  2.01970e-06
 Reference value :  2.02080e-06
 Reference value :  2.02197e-06
 Reference value :  2.02320e-06
 Reference value :  2.02465e-06
 Reference value :  2.02602e-06
 Reference value :  2.02842e-06
 Reference value :  2.03061e-06
 Reference value :  2.03499e-06
 Reference value :  2.04268e-06
 Reference value :  2.05444e-06
 Reference value :  2.07492e-06
 Reference value :  2.10478e-06
 Reference value :  2.15252e-06
 Reference value :  2.23823e-06
 Reference value :  2.25010e-06
 Reference value :  2.25011e-06
 Reference value :  2.25013e-06
 Reference value :  2.25017e-06
 Reference value :  2.25020e-06
 Reference value :  2.25020e-06
 Reference value :  2.25020e-06
 Reference value :  2.25021e-06
 Reference value :  2.25021e-06
 Reference value :  2.25023e-06
 Reference value :  2.25025e-06
 Reference value :  2.25031e-06
 Reference value :  2.25041e-06
 Reference value :  2.25062e-06
 Reference value :  2.25098e-06
 Reference value :  2.25135e-06
 Reference value :  2.25182e-06
 Reference value :  2.25236e-06
 Reference value :  2.25305e-06
 Reference value :  2.25388e-06
 Reference value :  2.25464e-06
 Reference value :  2.25549e-06
 Reference value :  2.25637e-06
 Reference value :  2.25720e-06
 Reference value :  2.25850e-06
 Reference value :  2.25984e-06
 Reference value :  2.26188e-06
 Reference value :  2.26465e-06
 Reference value :  2.26869e-06
 Reference value :  2.27676e-06
 Reference value :  2.29035e-06
 Reference value :  2.31494e-06
 Reference value :  2.36017e-06
 Reference value :  2.42220e-06
 Reference value :  2.48503e-06
 Reference value :  2.50000e-06
 Reference value :  2.50001e-06
 Reference value :  2.50003e-06
 Reference value :  2.50007e-06
 Reference value :  2.50010e-06
 Reference value :  2.50010e-06
 Reference value :  2.50011e-06
 Reference value :  2.50013e-06
 Reference value :  2.50017e-06
 Reference value :  2.50023e-06
 Reference value :  2.50036e-06
 Reference value :  2.50056e-06
 Reference value :  2.50096e-06
 Reference value :  2.50146e-06
 Reference value :  2.50199e-06
 Reference value :  2.50246e-06
 Reference value :  2.50303e-06
 Reference value :  2.50357e-06
 Reference value :  2.50424e-06
 Reference value :  2.50496e-06
 Reference value :  2.50577e-06
 Reference value :  2.50683e-06
 Reference value :  2.50791e-06
 Reference value :  2.50935e-06
 Reference value :  2.51038e-06
 Reference value :  2.51152e-06
 Reference value :  2.51269e-06
 Reference value :  2.51409e-06
 Reference value :  2.51561e-06
 Reference value :  2.51716e-06
 Reference value :  2.52026e-06
 Reference value :  2.52541e-06
 Reference value :  2.53488e-06
 Reference value :  2.55329e-06
 Reference value :  2.58701e-06
 Reference value :  2.65443e-06
 Reference value :  2.75010e-06
 Reference value :  2.75011e-06
 Reference value :  2.75013e-06
 Reference value :  2.75017e-06
 Reference value :  2.75020e-06
 Reference value :  2.75020e-06
 Reference value :  2.75020e-06
 Reference value :  2.75021e-06
 Reference value :  2.75021e-06
 Reference value :  2.75023e-06
 Reference value :  2.75025e-06
 Reference value :  2.75030e-06
 Reference value :  2.75041e-06
 Reference value :  2.75062e-06
 Reference value :  2.75097e-06
 Reference value :  2.75134e-06
 Reference value :  2.75181e-06
 Reference value :  2.75234e-06
 Reference value :  2.75304e-06
 Reference value :  2.75386e-06
 Reference value :  2.75464e-06
 Reference value :  2.75552e-06
 Reference value :  2.75637e-06
 Reference value :  2.75716e-06
 Reference value :  2.75808e-06
 Reference value :  2.75910e-06
 Reference value :  2.76036e-06
 Reference value :  2.76157e-06
 Reference value :  2.76344e-06
 Reference value :  2.76551e-06
 Reference value :  2.76868e-06
 Reference value :  2.77338e-06
 Reference value :  2.78277e-06
 Reference value :  2.80156e-06
 Reference value :  2.83767e-06
 Reference value :  2.90989e-06
 Reference value :  3.00000e-06
 Reference value :  3.00001e-06
 Reference value :  3.00003e-06
 Reference value :  3.00007e-06
 Reference value :  3.00010e-06
 Reference value :  3.00010e-06
 Reference value :  3.00011e-06
 Reference value :  3.00013e-06
 Reference value :  3.00016e-06
 Reference value :  3.00023e-06
 Reference value :  3.00036e-06
 Reference value :  3.00056e-06
 Reference value :  3.00096e-06
 Reference value :  3.00145e-06
 Reference value :  3.00198e-06
 Reference value :  3.00248e-06
 Reference value :  3.00302e-06
 Reference value :  3.00358e-06
 Reference value :  3.00432e-06
 Reference value :  3.00499e-06
 Reference value :  3.00564e-06
 Reference value :  3.00631e-06
 Reference value :  3.00700e-06
 Reference value :  3.00774e-06
 Reference value :  3.00844e-06
 Reference value :  3.00933e-06
 Reference value :  3.01032e-06
 Reference value :  3.01187e-06
 Reference value :  3.01337e-06
 Reference value :  3.01496e-06
 Reference value :  3.01646e-06
 Reference value :  3.01792e-06
 Reference value :  3.01901e-06
 Reference value :  3.02004e-06
 Reference value :  3.02121e-06
 Reference value :  3.02227e-06
 Reference value :  3.02337e-06
 Reference value :  3.02465e-06
 Reference value :  3.02636e-06
 Reference value :  3.02823e-06
 Reference value :  3.03140e-06
 Reference value :  3.03670e-06
 Reference value :  3.04484e-06
 Reference value :  3.05949e-06
 Reference value :  3.07308e-06
 Reference value :  3.08869e-06
 Reference value :  3.10439e-06
 Reference value :  3.11558e-06
 Reference value :  3.12617e-06
 Reference value :  3.13625e-06
 Reference value :  3.14552e-06
 Reference value :  3.16405e-06
 Reference value :  3.18400e-06
 Reference value :  3.21522e-06
 Reference value :  3.24661e-06
 Reference value :  3.25010e-06
 Reference value :  3.25011e-06
 Reference value :  3.25013e-06
 Reference value :  3.25017e-06
 Reference value :  3.25020e-06
 Reference value :  3.25020e-06
 Reference value :  3.25020e-06
 Reference value :  3.25021e-06
 Reference value :  3.25021e-06
 Reference value :  3.25023e-06
 Reference value :  3.25025e-06
 Reference value :  3.25031e-06
 Reference value :  3.25041e-06
 Reference value :  3.25062e-06
 Reference value :  3.25098e-06
 Reference value :  3.25135e-06
 Reference value :  3.25182e-06
 Reference value :  3.25236e-06
 Reference value :  3.25305e-06
 Reference value :  3.25388e-06
 Reference value :  3.25467e-06
 Reference value :  3.25555e-06
 Reference value :  3.25642e-06
 Reference value :  3.25728e-06
 Reference value :  3.25875e-06
 Reference value :  3.26010e-06
 Reference value :  3.26224e-06
 Reference value :  3.26505e-06
 Reference value :  3.26970e-06
 Reference value :  3.27898e-06
 Reference value :  3.29305e-06
 Reference value :  3.32040e-06
 Reference value :  3.36693e-06
 Reference value :  3.44941e-06
 Reference value :  3.50000e-06
 Reference value :  3.50001e-06
 Reference value :  3.50003e-06
 Reference value :  3.50007e-06
 Reference value :  3.50010e-06
 Reference value :  3.50010e-06
 Reference value :  3.50011e-06
 Reference value :  3.50013e-06
 Reference value :  3.50016e-06
 Reference value :  3.50023e-06
 Reference value :  3.50036e-06
 Reference value :  3.50056e-06
 Reference value :  3.50096e-06
 Reference value :  3.50145e-06
 Reference value :  3.50198e-06
 Reference value :  3.50248e-06
 Reference value :  3.50302e-06
 Reference value :  3.50358e-06
 Reference value :  3.50434e-06
 Reference value :  3.50504e-06
 Reference value :  3.50586e-06
 Reference value :  3.50691e-06
 Reference value :  3.50800e-06
 Reference value :  3.50940e-06
 Reference value :  3.51048e-06
 Reference value :  3.51165e-06
 Reference value :  3.51267e-06
 Reference value :  3.51387e-06
 Reference value :  3.51508e-06
 Reference value :  3.51649e-06
 Reference value :  3.51932e-06
 Reference value :  3.52432e-06
 Reference value :  3.53350e-06
 Reference value :  3.55185e-06
 Reference value :  3.58704e-06
 Reference value :  3.65661e-06
 Reference value :  3.75010e-06
 Reference value :  3.75011e-06
 Reference value :  3.75013e-06
 Reference value :  3.75017e-06
 Reference value :  3.75020e-06
 Reference value :  3.75020e-06
 Reference value :  3.75020e-06
 Reference value :  3.75021e-06
 Reference value :  3.75021e-06
 Reference value :  3.75023e-06
 Reference value :  3.75025e-06
 Reference value :  3.75030e-06
 Reference value :  3.75041e-06
 Reference value :  3.75062e-06
 Reference value :  3.75097e-06
 Reference value :  3.75134e-06
 Reference value :  3.75181e-06
 Reference value :  3.75234e-06
 Reference value :  3.75304e-06
 Reference value :  3.75386e-06
 Reference value :  3.75464e-06
 Reference value :  3.75553e-06
 Reference value :  3.75638e-06
 Reference value :  3.75717e-06
 Reference value :  3.75807e-06
 Reference value :  3.75909e-06
 Reference value :  3.76095e-06
 Reference value :  3.76349e-06
 Reference value :  3.76681e-06
 Reference value :  3.77346e-06
 Reference value :  3.78675e-06
 Reference value :  3.80899e-06
 Reference value :  3.85347e-06
 Reference value :  3.94244e-06
 Reference value :  4.00000e-06
 Reference value :  4.00001e-06
 Reference value :  4.00003e-06
 Reference value :  4.00007e-06
 Reference value :  4.00010e-06
 Reference value :  4.00010e-06
 Reference value :  4.00011e-06
 Reference value :  4.00013e-06
 Reference value :  4.00016e-06
 Reference value :  4.00023e-06
 Reference value :  4.00036e-06
 Reference value :  4.00056e-06
 Reference value :  4.00096e-06
 Reference value :  4.00145e-06
 Reference value :  4.00198e-06
 Reference value :  4.00248e-06
 Reference value :  4.00302e-06
 Reference value :  4.00358e-06
 Reference value :  4.00427e-06
 Reference value :  4.00498e-06
 Reference value :  4.00581e-06
 Reference value :  4.00655e-06
 Reference value :  4.00763e-06
 Reference value :  4.00851e-06
 Reference value :  4.00943e-06
 Reference value :  4.01073e-06
 Reference value :  4.01210e-06
 Reference value :  4.01406e-06
 Reference value :  4.01602e-06
 Reference value :  4.01794e-06
 Reference value :  4.01937e-06
 Reference value :  4.02071e-06
 Reference value :  4.02205e-06
 Reference value :  4.02355e-06
 Reference value :  4.02531e-06
 Reference value :  4.02699e-06
 Reference value :  4.02949e-06
 Reference value :  4.03293e-06
 Reference value :  4.03796e-06
 Reference value :  4.04714e-06
 Reference value :  4.05620e-06
 Reference value :  4.06628e-06
 Reference value :  4.07359e-06
 Reference value :  4.08092e-06
 Reference value :  4.08634e-06
 Reference value :  4.09149e-06
 Reference value :  4.09745e-06
 Reference value :  4.10353e-06
 Reference value :  4.11176e-06
 Reference value :  4.11864e-06
 Reference value :  4.12655e-06
 Reference value :  4.14223e-06
 Reference value :  4.15869e-06
 Reference value :  4.18709e-06
 Reference value :  4.23080e-06
 Reference value :  4.25010e-06
 Reference value :  4.25011e-06
 Reference value :  4.25013e-06
 Reference value :  4.25017e-06
 Reference value :  4.25020e-06
 Reference value :  4.25020e-06
 Reference value :  4.25020e-06
 Reference value :  4.25021e-06
 Reference value :  4.25021e-06
 Reference value :  4.25023e-06
 Reference value :  4.25025e-06
 Reference value :  4.25031e-06
 Reference value :  4.25041e-06
 Reference value :  4.25062e-06
 Reference value :  4.25098e-06
 Reference value :  4.25135e-06
 Reference value :  4.25182e-06
 Reference value :  4.25236e-06
 Reference value :  4.25305e-06
 Reference value :  4.25388e-06
 Reference value :  4.25459e-06
 Reference value :  4.25542e-06
 Reference value :  4.25620e-06
 Reference value :  4.25702e-06
 Reference value :  4.25826e-06
 Reference value :  4.25953e-06
 Reference value :  4.26153e-06
 Reference value :  4.26420e-06
 Reference value :  4.26779e-06
 Reference value :  4.27497e-06
 Reference value :  4.28838e-06
 Reference value :  4.31135e-06
 Reference value :  4.35728e-06
 Reference value :  4.44915e-06
 Reference value :  4.50000e-06
 Reference value :  4.50001e-06
 Reference value :  4.50003e-06
 Reference value :  4.50007e-06
 Reference value :  4.50010e-06
 Reference value :  4.50010e-06
 Reference value :  4.50011e-06
 Reference value :  4.50013e-06
 Reference value :  4.50016e-06
 Reference value :  4.50023e-06
 Reference value :  4.50036e-06
 Reference value :  4.50056e-06
 Reference value :  4.50096e-06
 Reference value :  4.50145e-06
 Reference value :  4.50198e-06
 Reference value :  4.50245e-06
 Reference value :  4.50302e-06
 Reference value :  4.50356e-06
 Reference value :  4.50423e-06
 Reference value :  4.50494e-06
 Reference value :  4.50570e-06
 Reference value :  4.50677e-06
 Reference value :  4.50777e-06
 Reference value :  4.50916e-06
 Reference value :  4.51014e-06
 Reference value :  4.51125e-06
 Reference value :  4.51221e-06
 Reference value :  4.51337e-06
 Reference value :  4.51452e-06
 Reference value :  4.51588e-06
 Reference value :  4.51859e-06
 Reference value :  4.52397e-06
 Reference value :  4.53351e-06
 Reference value :  4.55258e-06
 Reference value :  4.59074e-06
 Reference value :  4.66704e-06
 Reference value :  4.75010e-06
 Reference value :  4.75011e-06
 Reference value :  4.75013e-06
 Reference value :  4.75017e-06
 Reference value :  4.75020e-06
 Reference value :  4.75020e-06
 Reference value :  4.75020e-06
 Reference value :  4.75021e-06
 Reference value :  4.75021e-06
 Reference value :  4.75023e-06
 Reference value :  4.75025e-06
 Reference value :  4.75030e-06
 Reference value :  4.75041e-06
 Reference value :  4.75062e-06
 Reference value :  4.75097e-06
 Reference value :  4.75134e-06
 Reference value :  4.75181e-06
 Reference value :  4.75234e-06
 Reference value :  4.75304e-06
 Reference value :  4.75386e-06
 Reference value :  4.75463e-06
 Reference value :  4.75551e-06
 Reference value :  4.75636e-06
 Reference value :  4.75715e-06
 Reference value :  4.75806e-06
 Reference value :  4.75907e-06
 Reference value :  4.76030e-06
 Reference value :  4.76151e-06
 Reference value :  4.76337e-06
 Reference value :  4.76544e-06
 Reference value :  4.76857e-06
 Reference value :  4.77314e-06
 Reference value :  4.78227e-06
 Reference value :  4.80053e-06
 Reference value :  4.83535e-06
 Reference value :  4.90499e-06
 Reference value :  5.00000e-06
 Reference value :  5.00001e-06
 Reference value :  5.00003e-06
 Reference value :  5.00007e-06
 Reference value :  5.00010e-06
 Reference value :  5.00010e-06
 Reference value :  5.00011e-06
 Reference value :  5.00013e-06
 Reference value :  5.00016e-06
 Reference value :  5.00023e-06
 Reference value :  5.00036e-06
 Reference value :  5.00056e-06
 Reference value :  5.00096e-06
 Reference value :  5.00145e-06
 Reference value :  5.00198e-06
 Reference value :  5.00247e-06
 Reference value :  5.00302e-06
 Reference value :  5.00358e-06
 Reference value :  5.00432e-06
 Reference value :  5.00499e-06
 Reference value :  5.00564e-06
 Reference value :  5.00632e-06
 Reference value :  5.00701e-06
 Reference value :  5.00768e-06
 Reference value :  5.00838e-06
 Reference value :  5.00931e-06
 Reference value :  5.01026e-06
 Reference value :  5.01192e-06
 Reference value :  5.01301e-06
 Reference value :  5.01423e-06
 Reference value :  5.01543e-06
 Reference value :  5.01688e-06
 Reference value :  5.01837e-06
 Reference value :  5.01949e-06
 Reference value :  5.02070e-06
 Reference value :  5.02190e-06
 Reference value :  5.02318e-06
 Reference value :  5.02475e-06
 Reference value :  5.02625e-06
 Reference value :  5.02858e-06
 Reference value :  5.03110e-06
 Reference value :  5.03615e-06
 Reference value :  5.04624e-06
 Reference value :  5.05619e-06
 Reference value :  5.06512e-06
 Reference value :  5.07483e-06
 Reference value :  5.08459e-06
 Reference value :  5.10086e-06
 Reference value :  5.12469e-06
 Reference value :  5.17235e-06
 Reference value :  5.25010e-06
 Reference value :  5.25011e-06
 Reference value :  5.25013e-06
 Reference value :  5.25017e-06
 Reference value :  5.25020e-06
 Reference value :  5.25020e-06
 Reference value :  5.25020e-06
 Reference value :  5.25021e-06
 Reference value :  5.25021e-06
 Reference value :  5.25023e-06
 Reference value :  5.25025e-06
 Reference value :  5.25030e-06
 Reference value :  5.25041e-06
 Reference value :  5.25062e-06
 Reference value :  5.25097e-06
 Reference value :  5.25134e-06
 Reference value :  5.25181e-06
 Reference value :  5.25234e-06
 Reference value :  5.25306e-06
 Reference value :  5.25387e-06
 Reference value :  5.25464e-06
 Reference value :  5.25550e-06
 Reference value :  5.25636e-06
 Reference value :  5.25721e-06
 Reference value :  5.25866e-06
 Reference value :  5.25998e-06
 Reference value :  5.26211e-06
 Reference value :  5.26488e-06
 Reference value :  5.26927e-06
 Reference value :  5.27804e-06
 Reference value :  5.29177e-06
 Reference value :  5.31787e-06
 Reference value :  5.36340e-06
 Reference value :  5.44766e-06
 Reference value :  5.50000e-06
 Reference value :  5.50001e-06
 Reference value :  5.50003e-06
 Reference value :  5.50007e-06
 Reference value :  5.50010e-06
 Reference value :  5.50010e-06
 Reference value :  5.50011e-06
 Reference value :  5.50013e-06
 Reference value :  5.50016e-06
 Reference value :  5.50023e-06
 Reference value :  5.50036e-06
 Reference value :  5.50056e-06
 Reference value :  5.50096e-06
 Reference value :  5.50146e-06
 Reference value :  5.50198e-06
 Reference value :  5.50245e-06
 Reference value :  5.50303e-06
 Reference value :  5.50356e-06
 Reference value :  5.50423e-06
 Reference value :  5.50495e-06
 Reference value :  5.50577e-06
 Reference value :  5.50683e-06
 Reference value :  5.50791e-06
 Reference value :  5.50924e-06
 Reference value :  5.51025e-06
 Reference value :  5.51136e-06
 Reference value :  5.51236e-06
 Reference value :  5.51351e-06
 Reference value :  5.51472e-06
 Reference value :  5.51612e-06
 Reference value :  5.51891e-06
 Reference value :  5.52331e-06
 Reference value :  5.53210e-06
 Reference value :  5.54968e-06
 Reference value :  5.58357e-06
 Reference value :  5.65133e-06
 Reference value :  5.75010e-06
 Reference value :  5.75011e-06
 Reference value :  5.75013e-06
 Reference value :  5.75017e-06
 Reference value :  5.75020e-06
 Reference value :  5.75020e-06
 Reference value :  5.75020e-06
 Reference value :  5.75021e-06
 Reference value :  5.75021e-06
 Reference value :  5.75023e-06
 Reference value :  5.75025e-06
 Reference value :  5.75030e-06
 Reference value :  5.75041e-06
 Reference value :  5.75062e-06
 Reference value :  5.75097e-06
 Reference value :  5.75134e-06
 Reference value :  5.75181e-06
 Reference value :  5.75234e-06
 Reference value :  5.75304e-06
 Reference value :  5.75386e-06
 Reference value :  5.75464e-06
 Reference value :  5.75552e-06
 Reference value :  5.75637e-06
 Reference value :  5.75716e-06
 Reference value :  5.75807e-06
 Reference value :  5.75909e-06
 Reference value :  5.76034e-06
 Reference value :  5.76155e-06
 Reference value :  5.76341e-06
 Reference value :  5.76547e-06
 Reference value :  5.76864e-06
 Reference value :  5.77328e-06
 Reference value :  5.78257e-06
 Reference value :  5.80114e-06
 Reference value :  5.83672e-06
 Reference value :  5.90788e-06
 Reference value :  6.00000e-06
 Reference value :  6.00001e-06
 Reference value :  6.00003e-06
 Reference value :  6.00007e-06
 Reference value :  6.00010e-06
 Reference value :  6.00010e-06
 Reference value :  6.00011e-06
 Reference value :  6.00013e-06
 Reference value :  6.00016e-06
 Reference value :  6.00023e-06
 Reference value :  6.00036e-06
 Reference value :  6.00056e-06
 Reference value :  6.00096e-06
 Reference value :  6.00145e-06
 Reference value :  6.00198e-06
 Reference value :  6.00248e-06
 Reference value :  6.00302e-06
 Reference value :  6.00358e-06
 Reference value :  6.00432e-06
 Reference value :  6.00499e-06
 Reference value :  6.00564e-06
 Reference value :  6.00632e-06
 Reference value :  6.00701e-06
 Reference value :  6.00776e-06
 Reference value :  6.00846e-06
 Reference value :  6.00946e-06
 Reference value :  6.01050e-06
 Reference value :  6.01197e-06
 Reference value :  6.01302e-06
 Reference value :  6.01419e-06
 Reference value :  6.01543e-06
 Reference value :  6.01676e-06
 Reference value :  6.01812e-06
 Reference value :  6.01912e-06
 Reference value :  6.02004e-06
 Reference value :  6.02113e-06
 Reference value :  6.02213e-06
 Reference value :  6.02318e-06
 Reference value :  6.02447e-06
 Reference value :  6.02589e-06
 Reference value :  6.02798e-06
 Reference value :  6.03078e-06
 Reference value :  6.03638e-06
 Reference value :  6.04088e-06
 Reference value :  6.04572e-06
 Reference value :  6.05112e-06
 Reference value :  6.06020e-06
 Reference value :  6.07248e-06
 Reference value :  6.09196e-06
 Reference value :  6.11169e-06
 Reference value :  6.13544e-06
 Reference value :  6.15145e-06
 Reference value :  6.16636e-06
 Reference value :  6.18346e-06
 Reference value :  6.19867e-06
 Reference value :  6.21800e-06
 Reference value :  6.25010e-06
 Reference value :  6.25011e-06
 Reference value :  6.25013e-06
 Reference value :  6.25017e-06
 Reference value :  6.25020e-06
 Reference value :  6.25020e-06
 Reference value :  6.25020e-06
 Reference value :  6.25021e-06
 Reference value :  6.25021e-06
 Reference value :  6.25023e-06
 Reference value :  6.25025e-06
 Reference value :  6.25030e-06
 Reference value :  6.25041e-06
 Reference value :  6.25062e-06
 Reference value :  6.25097e-06
 Reference value :  6.25134e-06
 Reference value :  6.25181e-06
 Reference value :  6.25234e-06
 Reference value :  6.25304e-06
 Reference value :  6.25386e-06
 Reference value :  6.25467e-06
 Reference value :  6.25556e-06
 Reference value :  6.25641e-06
 Reference value :  6.25730e-06
 Reference value :  6.25874e-06
 Reference value :  6.26011e-06
 Reference value :  6.26224e-06
 Reference value :  6.26507e-06
 Reference value :  6.26970e-06
 Reference value :  6.27897e-06
 Reference value :  6.29302e-06
 Reference value :  6.32023e-06
 Reference value :  6.36658e-06
 Reference value :  6.44855e-06
 Reference value :  6.50000e-06
 Reference value :  6.50001e-06
 Reference value :  6.50003e-06
 Reference value :  6.50007e-06
 Reference value :  6.50010e-06
 Reference value :  6.50010e-06
 Reference value :  6.50011e-06
 Reference value :  6.50013e-06
 Reference value :  6.50016e-06
 Reference value :  6.50023e-06
 Reference value :  6.50036e-06
 Reference value :  6.50056e-06
 Reference value :  6.50096e-06
 Reference value :  6.50145e-06
 Reference value :  6.50198e-06
 Reference value :  6.50248e-06
 Reference value :  6.50302e-06
 Reference value :  6.50358e-06
 Reference value :  6.50434e-06
 Reference value :  6.50504e-06
 Reference value :  6.50585e-06
 Reference value :  6.50690e-06
 Reference value :  6.50799e-06
 Reference value :  6.50940e-06
 Reference value :  6.51048e-06
 Reference value :  6.51164e-06
 Reference value :  6.51278e-06
 Reference value :  6.51402e-06
 Reference value :  6.51547e-06
 Reference value :  6.51709e-06
 Reference value :  6.52007e-06
 Reference value :  6.52435e-06
 Reference value :  6.53229e-06
 Reference value :  6.54670e-06
 Reference value :  6.57240e-06
 Reference value :  6.62194e-06
 Reference value :  6.71178e-06
 Reference value :  6.75010e-06
 Reference value :  6.75011e-06
 Reference value :  6.75013e-06
 Reference value :  6.75017e-06
 Reference value :  6.75020e-06
 Reference value :  6.75020e-06
 Reference value :  6.75020e-06
 Reference value :  6.75021e-06
 Reference value :  6.75021e-06
 Reference value :  6.75023e-06
 Reference value :  6.75025e-06
 Reference value :  6.75031e-06
 Reference value :  6.75041e-06
 Reference value :  6.75062e-06
 Reference value :  6.75098e-06
 Reference value :  6.75135e-06
 Reference value :  6.75182e-06
 Reference value :  6.75236e-06
 Reference value :  6.75305e-06
 Reference value :  6.75389e-06
 Reference value :  6.75465e-06
 Reference value :  6.75551e-06
 Reference value :  6.75627e-06
 Reference value :  6.75707e-06
 Reference value :  6.75796e-06
 Reference value :  6.75896e-06
 Reference value :  6.76082e-06
 Reference value :  6.76331e-06
 Reference value :  6.76656e-06
 Reference value :  6.77267e-06
 Reference value :  6.78488e-06
 Reference value :  6.80596e-06
 Reference value :  6.84812e-06
 Reference value :  6.93242e-06
 Reference value :  7.00000e-06
 Reference value :  7.00001e-06
 Reference value :  7.00003e-06
 Reference value :  7.00007e-06
 Reference value :  7.00010e-06
 Reference value :  7.00010e-06
 Reference value :  7.00011e-06
 Reference value :  7.00013e-06
 Reference value :  7.00016e-06
 Reference value :  7.00023e-06
 Reference value :  7.00036e-06
 Reference value :  7.00056e-06
 Reference value :  7.00096e-06
 Reference value :  7.00145e-06
 Reference value :  7.00198e-06
 Reference value :  7.00248e-06
 Reference value :  7.00302e-06
 Reference value :  7.00358e-06
 Reference value :  7.00427e-06
 Reference value :  7.00499e-06
 Reference value :  7.00580e-06
 Reference value :  7.00655e-06
 Reference value :  7.00732e-06
 Reference value :  7.00807e-06
 Reference value :  7.00888e-06
 Reference value :  7.00993e-06
 Reference value :  7.01133e-06
 Reference value :  7.01354e-06
 Reference value :  7.01592e-06
 Reference value :  7.01770e-06
 Reference value :  7.01966e-06
 Reference value :  7.02117e-06
 Reference value :  7.02275e-06
 Reference value :  7.02445e-06
 Reference value :  7.02635e-06
 Reference value :  7.02819e-06
 Reference value :  7.03079e-06
 Reference value :  7.03455e-06
 Reference value :  7.04079e-06
 Reference value :  7.04825e-06
 Reference value :  7.05968e-06
 Reference value :  7.07498e-06
 Reference value :  7.10452e-06
 Reference value :  7.16360e-06
 Reference value :  7.22463e-06
 Reference value :  7.25010e-06
 Reference value :  7.25011e-06
 Reference value :  7.25013e-06
 Reference value :  7.25017e-06
 Reference value :  7.25020e-06
 Reference value :  7.25020e-06
 Reference value :  7.25020e-06
 Reference value :  7.25021e-06
 Reference value :  7.25021e-06
 Reference value :  7.25023e-06
 Reference value :  7.25025e-06
 Reference value :  7.25031e-06
 Reference value :  7.25041e-06
 Reference value :  7.25062e-06
 Reference value :  7.25098e-06
 Reference value :  7.25135e-06
 Reference value :  7.25183e-06
 Reference value :  7.25236e-06
 Reference value :  7.25306e-06
 Reference value :  7.25389e-06
 Reference value :  7.25461e-06
 Reference value :  7.25544e-06
 Reference value :  7.25623e-06
 Reference value :  7.25704e-06
 Reference value :  7.25827e-06
 Reference value :  7.25954e-06
 Reference value :  7.26153e-06
 Reference value :  7.26419e-06
 Reference value :  7.26782e-06
 Reference value :  7.27508e-06
 Reference value :  7.28308e-06
 Reference value :  7.29907e-06
 Reference value :  7.31567e-06
 Reference value :  7.32805e-06
 Reference value :  7.34133e-06
 Reference value :  7.35708e-06
 Reference value :  7.37341e-06
 Reference value :  7.40607e-06
 Reference value :  7.44664e-06
 Reference value :  7.49023e-06
 Reference value :  7.50000e-06
 Reference value :  7.50001e-06
 Reference value :  7.50003e-06
 Reference value :  7.50007e-06
 Reference value :  7.50010e-06
 Reference value :  7.50010e-06
 Reference value :  7.50011e-06
 Reference value :  7.50013e-06
 Reference value :  7.50016e-06
 Reference value :  7.50023e-06
 Reference value :  7.50036e-06
 Reference value :  7.50056e-06
 Reference value :  7.50096e-06
 Reference value :  7.50145e-06
 Reference value :  7.50197e-06
 Reference value :  7.50244e-06
 Reference value :  7.50300e-06
 Reference value :  7.50353e-06
 Reference value :  7.50421e-06
 Reference value :  7.50492e-06
 Reference value :  7.50572e-06
 Reference value :  7.50678e-06
 Reference value :  7.50785e-06
 Reference value :  7.50940e-06
 Reference value :  7.51043e-06
 Reference value :  7.51162e-06
 Reference value :  7.51261e-06
 Reference value :  7.51381e-06
 Reference value :  7.51501e-06
 Reference value :  7.51641e-06
 Reference value :  7.51922e-06
 Reference value :  7.52403e-06
 Reference value :  7.53348e-06
 Reference value :  7.55223e-06
 Reference value :  7.58896e-06
 Reference value :  7.66243e-06
 Reference value :  7.75010e-06
 Reference value :  7.75011e-06
 Reference value :  7.75013e-06
 Reference value :  7.75017e-06
 Reference value :  7.75020e-06
 Reference value :  7.75020e-06
 Reference value :  7.75020e-06
 Reference value :  7.75021e-06
 Reference value :  7.75021e-06
 Reference value :  7.75023e-06
 Reference value :  7.75025e-06
 Reference value :  7.75030e-06
 Reference value :  7.75041e-06
 Reference value :  7.75062e-06
 Reference value :  7.75097e-06
 Reference value :  7.75134e-06
 Reference value :  7.75181e-06
 Reference value :  7.75234e-06
 Reference value :  7.75304e-06
 Reference value :  7.75386e-06
 Reference value :  7.75459e-06
 Reference value :  7.75544e-06
 Reference value :  7.75619e-06
 Reference value :  7.75697e-06
 Reference value :  7.75786e-06
 Reference value :  7.75885e-06
 Reference value :  7.75986e-06
 Reference value :  7.76121e-06
 Reference value :  7.76286e-06
 Reference value :  7.76496e-06
 Reference value :  7.76772e-06
 Reference value :  7.77159e-06
 Reference value :  7.77931e-06
 Reference value :  7.79078e-06
 Reference value :  7.81372e-06
 Reference value :  7.85960e-06
 Reference value :  7.95096e-06
 Reference value :  8.00000e-06
 Reference value :  8.00001e-06
 Reference value :  8.00003e-06
 Reference value :  8.00007e-06
 Reference value :  8.00010e-06
 Reference value :  8.00010e-06
 Reference value :  8.00011e-06
 Reference value :  8.00013e-06
 Reference value :  8.00017e-06
 Reference value :  8.00023e-06
 Reference value :  8.00036e-06
 Reference value :  8.00056e-06
 Reference value :  8.00096e-06
 Reference value :  8.00145e-06
 Reference value :  8.00197e-06
 Reference value :  8.00247e-06
 Reference value :  8.00306e-06
 Reference value :  8.00360e-06
 Reference value :  8.00429e-06
 Reference value :  8.00500e-06
 Reference value :  8.00575e-06
 Reference value :  8.00646e-06
 Reference value :  8.00723e-06
 Reference value :  8.00803e-06
 Reference value :  8.00880e-06
 Reference value :  8.00996e-06
 Reference value :  8.01112e-06
 Reference value :  8.01275e-06
 Reference value :  8.01392e-06
 Reference value :  8.01520e-06
 Reference value :  8.01640e-06
 Reference value :  8.01787e-06
 Reference value :  8.01938e-06
 Reference value :  8.02106e-06
 Reference value :  8.02251e-06
 Reference value :  8.02406e-06
 Reference value :  8.02610e-06
 Reference value :  8.02977e-06
 Reference value :  8.03528e-06
 Reference value :  8.04570e-06
 Reference value :  8.05621e-06
 Reference value :  8.07707e-06
 Reference value :  8.09777e-06
 Reference value :  8.11263e-06
 Reference value :  8.12662e-06
 Reference value :  8.14472e-06
 Reference value :  8.15872e-06
 Reference value :  8.17702e-06
 Reference value :  8.21363e-06
 Reference value :  8.25010e-06
 Reference value :  8.25011e-06
 Reference value :  8.25013e-06
 Reference value :  8.25017e-06
 Reference value :  8.25020e-06
 Reference value :  8.25020e-06
 Reference value :  8.25020e-06
 Reference value :  8.25021e-06
 Reference value :  8.25021e-06
 Reference value :  8.25023e-06
 Reference value :  8.25025e-06
 Reference value :  8.25031e-06
 Reference value :  8.25041e-06
 Reference value :  8.25062e-06
 Reference value :  8.25098e-06
 Reference value :  8.25135e-06
 Reference value :  8.25182e-06
 Reference value :  8.25236e-06
 Reference value :  8.25305e-06
 Reference value :  8.25388e-06
 Reference value :  8.25494e-06
 Reference value :  8.25600e-06
 Reference value :  8.25730e-06
 Reference value :  8.25855e-06
 Reference value :  8.26056e-06
 Reference value :  8.26266e-06
 Reference value :  8.26597e-06
 Reference value :  8.27059e-06
 Reference value :  8.27983e-06
 Reference value :  8.29829e-06
 Reference value :  8.33523e-06
 Reference value :  8.40911e-06
 Reference value :  8.50000e-06
 Reference value :  8.50000e-06
 Reference value :  8.50000e-06
 Reference value :  8.50000e-06
 Reference value :  8.50000e-06
 Reference value :  8.50000e-06
 Reference value :  8.50000e-06
 Reference value :  8.50000e-06
 Reference value :  8.50000e-06
 Reference value :  8.50000e-06
 Reference value :  8.50001e-06
 Reference value :  8.50001e-06
 Reference value :  8.50002e-06
 Reference value :  8.50004e-06
 Reference value :  8.50008e-06
 Reference value :  8.50010e-06
 Reference value :  8.50010e-06
 Reference value :  8.50011e-06
 Reference value :  8.50012e-06
 Reference value :  8.50014e-06
 Reference value :  8.50018e-06
 Reference value :  8.50027e-06
 Reference value :  8.50044e-06
 Reference value :  8.50079e-06
 Reference value :  8.50129e-06
 Reference value :  8.50198e-06
 Reference value :  8.50270e-06
 Reference value :  8.50333e-06
 Reference value :  8.50398e-06
 Reference value :  8.50465e-06
 Reference value :  8.50536e-06
 Reference value :  8.50633e-06
 Reference value :  8.50734e-06
 Reference value :  8.50885e-06
 Reference value :  8.51051e-06
 Reference value :  8.51177e-06
 Reference value :  8.51318e-06
 Reference value :  8.51501e-06
 Reference value :  8.51735e-06
 Reference value :  8.51960e-06
 Reference value :  8.52410e-06
 Reference value :  8.52904e-06
 Reference value :  8.53246e-06
 Reference value :  8.53535e-06
 Reference value :  8.53805e-06
 Reference value :  8.54069e-06
 Reference value :  8.54284e-06
 Reference value :  8.54495e-06
 Reference value :  8.54717e-06
 Reference value :  8.54922e-06
 Reference value :  8.55211e-06
 Reference value :  8.55511e-06
 Reference value :  8.55772e-06
 Reference value :  8.56098e-06
 Reference value :  8.56420e-06
 Reference value :  8.57063e-06
 Reference value :  8.57950e-06
 Reference value :  8.59252e-06
 Reference value :  8.61073e-06
 Reference value :  8.63106e-06
 Reference value :  8.64432e-06
 Reference value :  8.65231e-06
 Reference value :  8.65724e-06
 Reference value :  8.66148e-06
 Reference value :  8.66595e-06
 Reference value :  8.67090e-06
 Reference value :  8.67773e-06
 Reference value :  8.68404e-06
 Reference value :  8.69141e-06
 Reference value :  8.70615e-06
 Reference value :  8.73015e-06
 Reference value :  8.75010e-06
 Reference value :  8.75011e-06
 Reference value :  8.75013e-06
 Reference value :  8.75017e-06
 Reference value :  8.75020e-06
 Reference value :  8.75020e-06
 Reference value :  8.75020e-06
 Reference value :  8.75021e-06
 Reference value :  8.75021e-06
 Reference value :  8.75023e-06
 Reference value :  8.75025e-06
 Reference value :  8.75030e-06
 Reference value :  8.75041e-06
 Reference value :  8.75062e-06
 Reference value :  8.75097e-06
 Reference value :  8.75135e-06
 Reference value :  8.75183e-06
 Reference value :  8.75236e-06
 Reference value :  8.75301e-06
 Reference value :  8.75389e-06
 Reference value :  8.75465e-06
 Reference value :  8.75548e-06
 Reference value :  8.75629e-06
 Reference value :  8.75713e-06
 Reference value :  8.75852e-06
 Reference value :  8.75986e-06
 Reference value :  8.76193e-06
 Reference value :  8.76468e-06
 Reference value :  8.76876e-06
 Reference value :  8.77692e-06
 Reference value :  8.79014e-06
 Reference value :  8.81439e-06
 Reference value :  8.85785e-06
 Reference value :  8.93704e-06
 Reference value :  9.00000e-06
 Reference value :  9.00001e-06
 Reference value :  9.00003e-06
 Reference value :  9.00007e-06
 Reference value :  9.00010e-06
 Reference value :  9.00010e-06
 Reference value :  9.00011e-06
 Reference value :  9.00013e-06
 Reference value :  9.00016e-06
 Reference value :  9.00023e-06
 Reference value :  9.00036e-06
 Reference value :  9.00058e-06
 Reference value :  9.00100e-06
 Reference value :  9.00150e-06
 Reference value :  9.00203e-06
 Reference value :  9.00251e-06
 Reference value :  9.00308e-06
 Reference value :  9.00370e-06
 Reference value :  9.00446e-06
 Reference value :  9.00524e-06
 Reference value :  9.00600e-06
 Reference value :  9.00723e-06
 Reference value :  9.00837e-06
 Reference value :  9.01018e-06
 Reference value :  9.01230e-06
 Reference value :  9.01385e-06
 Reference value :  9.01558e-06
 Reference value :  9.01731e-06
 Reference value :  9.01928e-06
 Reference value :  9.02157e-06
 Reference value :  9.02375e-06
 Reference value :  9.02804e-06
 Reference value :  9.03414e-06
 Reference value :  9.04260e-06
 Reference value :  9.05953e-06
 Reference value :  9.08924e-06
 Reference value :  9.14612e-06
 Reference value :  9.25010e-06
 Reference value :  9.25011e-06
 Reference value :  9.25013e-06
 Reference value :  9.25017e-06
 Reference value :  9.25020e-06
 Reference value :  9.25020e-06
 Reference value :  9.25020e-06
 Reference value :  9.25021e-06
 Reference value :  9.25021e-06
 Reference value :  9.25023e-06
 Reference value :  9.25025e-06
 Reference value :  9.25031e-06
 Reference value :  9.25041e-06
 Reference value :  9.25062e-06
 Reference value :  9.25098e-06
 Reference value :  9.25136e-06
 Reference value :  9.25184e-06
 Reference value :  9.25237e-06
 Reference value :  9.25309e-06
 Reference value :  9.25394e-06
 Reference value :  9.25467e-06
 Reference value :  9.25553e-06
 Reference value :  9.25627e-06
 Reference value :  9.25705e-06
 Reference value :  9.25793e-06
 Reference value :  9.25893e-06
 Reference value :  9.25983e-06
 Reference value :  9.26114e-06
 Reference value :  9.26249e-06
 Reference value :  9.26450e-06
 Reference value :  9.26692e-06
 Reference value :  9.27029e-06
 Reference value :  9.27564e-06
 Reference value :  9.28277e-06
 Reference value :  9.29384e-06
 Reference value :  9.30978e-06
 Reference value :  9.33747e-06
 Reference value :  9.38361e-06
 Reference value :  9.45772e-06
 Reference value :  9.50000e-06
 Reference value :  9.50001e-06
 Reference value :  9.50003e-06
 Reference value :  9.50007e-06
 Reference value :  9.50010e-06
 Reference value :  9.50010e-06
 Reference value :  9.50011e-06
 Reference value :  9.50013e-06
 Reference value :  9.50017e-06
 Reference value :  9.50023e-06
 Reference value :  9.50036e-06
 Reference value :  9.50058e-06
 Reference value :  9.50100e-06
 Reference value :  9.50150e-06
 Reference value :  9.50203e-06
 Reference value :  9.50254e-06
 Reference value :  9.50314e-06
 Reference value :  9.50371e-06
 Reference value :  9.50450e-06
 Reference value :  9.50523e-06
 Reference value :  9.50594e-06
 Reference value :  9.50680e-06
 Reference value :  9.50769e-06
 Reference value :  9.50851e-06
 Reference value :  9.50939e-06
 Reference value :  9.51049e-06
 Reference value :  9.51199e-06
 Reference value :  9.51394e-06
 Reference value :  9.51528e-06
 Reference value :  9.51678e-06
 Reference value :  9.51821e-06
 Reference value :  9.51960e-06
 Reference value :  9.52061e-06
 Reference value :  9.52171e-06
 Reference value :  9.52304e-06
 Reference value :  9.52440e-06
 Reference value :  9.52582e-06
 Reference value :  9.52823e-06
 Reference value :  9.53043e-06
 Reference value :  9.53482e-06
 Reference value :  9.54205e-06
 Reference value :  9.55286e-06
 Reference value :  9.57405e-06
 Reference value :  9.61285e-06
 Reference value :  9.67560e-06
 Reference value :  9.74001e-06
 Reference value :  9.75010e-06
 Reference value :  9.75011e-06
 Reference value :  9.75013e-06
 Reference value :  9.75017e-06
 Reference value :  9.75020e-06
 Reference value :  9.75020e-06
 Reference value :  9.75020e-06
 Reference value :  9.75021e-06
 Reference value :  9.75021e-06
 Reference value :  9.75023e-06
 Reference value :  9.75025e-06
 Reference value :  9.75030e-06
 Reference value :  9.75041e-06
 Reference value :  9.75062e-06
 Reference value :  9.75097e-06
 Reference value :  9.75134e-06
 Reference value :  9.75181e-06
 Reference value :  9.75235e-06
 Reference value :  9.75303e-06
 Reference value :  9.75387e-06
 Reference value :  9.75467e-06
 Reference value :  9.75553e-06
 Reference value :  9.75641e-06
 Reference value :  9.75727e-06
 Reference value :  9.75872e-06
 Reference value :  9.76011e-06
 Reference value :  9.76221e-06
 Reference value :  9.76506e-06
 Reference value :  9.76962e-06
 Reference value :  9.77873e-06
 Reference value :  9.79264e-06
 Reference value :  9.81929e-06
 Reference value :  9.86493e-06
 Reference value :  9.92958e-06
 Reference value :  1.00000e-05
 Reference value :  1.00000e-05
 Reference value :  1.00000e-05
 Reference value :  1.00001e-05
 Reference value :  1.00001e-05
 Reference value :  1.00001e-05
 Reference value :  1.00001e-05
 Reference value :  1.00001e-05
 Reference value :  1.00002e-05
 Reference value :  1.00002e-05
 Reference value :  1.00004e-05
 Reference value :  1.00006e-05
 Reference value :  1.00010e-05
 Reference value :  1.00015e-05
 Reference value :  1.00020e-05
 Reference value :  1.00025e-05
 Reference value :  1.00030e-05
 Reference value :  1.00036e-05
 Reference value :  1.00042e-05
 Reference value :  1.00050e-05
 Reference value :  1.00058e-05
 Reference value :  1.00068e-05
 Reference value :  1.00079e-05
 Reference value :  1.00094e-05
 Reference value :  1.00104e-05
 Reference value :  1.00115e-05
 Reference value :  1.00128e-05
 Reference value :  1.00143e-05
 Reference value :  1.00157e-05
 Reference value :  1.00174e-05
 Reference value :  1.00207e-05
 Reference value :  1.00251e-05
 Reference value :  1.00340e-05
 Reference value :  1.00503e-05
 Reference value :  1.00798e-05
 Reference value :  1.01389e-05
 Reference value :  1.02501e-05
 Reference value :  1.02501e-05
 Reference value :  1.02501e-05
 Reference value :  1.02502e-05
 Reference value :  1.02502e-05
 Reference value :  1.02502e-05
 Reference value :  1.02502e-05
 Reference value :  1.02502e-05
 Reference value :  1.02502e-05
 Reference value :  1.02502e-05
 Reference value :  1.02503e-05
 Reference value :  1.02503e-05
 Reference value :  1.02504e-05
 Reference value :  1.02506e-05
 Reference value :  1.02510e-05
 Reference value :  1.02513e-05
 Reference value :  1.02518e-05
 Reference value :  1.02523e-05
 Reference value :  1.02530e-05
 Reference value :  1.02539e-05
 Reference value :  1.02546e-05
 Reference value :  1.02555e-05
 Reference value :  1.02564e-05
 Reference value :  1.02572e-05
 Reference value :  1.02581e-05
 Reference value :  1.02591e-05
 Reference value :  1.02604e-05
 Reference value :  1.02616e-05
 Reference value :  1.02634e-05
 Reference value :  1.02655e-05
 Reference value :  1.02687e-05
 Reference value :  1.02734e-05
 Reference value :  1.02827e-05
 Reference value :  1.03014e-05
 Reference value :  1.03372e-05
 Reference value :  1.04087e-05
 Reference value :  1.05000e-05
 Reference value :  1.05000e-05
 Reference value :  1.05000e-05
 Reference value :  1.05001e-05
 Reference value :  1.05001e-05
 Reference value :  1.05001e-05
 Reference value :  1.05001e-05
 Reference value :  1.05001e-05
 Reference value :  1.05002e-05
 Reference value :  1.05002e-05
 Reference value :  1.05004e-05
 Reference value :  1.05006e-05
 Reference value :  1.05010e-05
 Reference value :  1.05015e-05
 Reference value :  1.05020e-05
 Reference value :  1.05025e-05
 Reference value :  1.05030e-05
 Reference value :  1.05036e-05
 Reference value :  1.05043e-05
 Reference value :  1.05050e-05
 Reference value :  1.05056e-05
 Reference value :  1.05063e-05
 Reference value :  1.05070e-05
 Reference value :  1.05077e-05
 Reference value :  1.05085e-05
 Reference value :  1.05093e-05
 Reference value :  1.05103e-05
 Reference value :  1.05118e-05
 Reference value :  1.05140e-05
 Reference value :  1.05154e-05
 Reference value :  1.05170e-05
 Reference value :  1.05185e-05
 Reference value :  1.05197e-05
 Reference value :  1.05208e-05
 Reference value :  1.05220e-05
 Reference value :  1.05232e-05
 Reference value :  1.05246e-05
 Reference value :  1.05260e-05
 Reference value :  1.05284e-05
 Reference value :  1.05306e-05
 Reference value :  1.05350e-05
 Reference value :  1.05426e-05
 Reference value :  1.05544e-05
 Reference value :  1.05748e-05
 Reference value :  1.06046e-05
 Reference value :  1.06522e-05
 Reference value :  1.06980e-05
 Reference value :  1.07387e-05
 Reference value :  1.07501e-05
 Reference value :  1.07501e-05
 Reference value :  1.07501e-05
 Reference value :  1.07502e-05
 Reference value :  1.07502e-05
 Reference value :  1.07502e-05
 Reference value :  1.07502e-05
 Reference value :  1.07502e-05
 Reference value :  1.07502e-05
 Reference value :  1.07502e-05
 Reference value :  1.07503e-05
 Reference value :  1.07503e-05
 Reference value :  1.07504e-05
 Reference value :  1.07506e-05
 Reference value :  1.07510e-05
 Reference value :  1.07513e-05
 Reference value :  1.07518e-05
 Reference value :  1.07523e-05
 Reference value :  1.07530e-05
 Reference value :  1.07539e-05
 Reference value :  1.07546e-05
 Reference value :  1.07555e-05
 Reference value :  1.07564e-05
 Reference value :  1.07572e-05
 Reference value :  1.07587e-05
 Reference value :  1.07600e-05
 Reference value :  1.07621e-05
 Reference value :  1.07649e-05
 Reference value :  1.07693e-05
 Reference value :  1.07782e-05
 Reference value :  1.07920e-05
 Reference value :  1.08182e-05
 Reference value :  1.08637e-05
 Reference value :  1.09239e-05
 Reference value :  1.09877e-05
 Reference value :  1.10000e-05
 Reference value :  1.10000e-05
 Reference value :  1.10000e-05
 Reference value :  1.10001e-05
 Reference value :  1.10001e-05
 Reference value :  1.10001e-05
 Reference value :  1.10001e-05
 Reference value :  1.10001e-05
 Reference value :  1.10002e-05
 Reference value :  1.10002e-05
 Reference value :  1.10004e-05
 Reference value :  1.10006e-05
 Reference value :  1.10010e-05
 Reference value :  1.10015e-05
 Reference value :  1.10020e-05
 Reference value :  1.10025e-05
 Reference value :  1.10030e-05
 Reference value :  1.10036e-05
 Reference value :  1.10042e-05
 Reference value :  1.10050e-05
 Reference value :  1.10058e-05
 Reference value :  1.10068e-05
 Reference value :  1.10079e-05
 Reference value :  1.10094e-05
 Reference value :  1.10104e-05
 Reference value :  1.10115e-05
 Reference value :  1.10127e-05
 Reference value :  1.10141e-05
 Reference value :  1.10156e-05
 Reference value :  1.10172e-05
 Reference value :  1.10203e-05
 Reference value :  1.10254e-05
 Reference value :  1.10349e-05
 Reference value :  1.10532e-05
 Reference value :  1.10869e-05
 Reference value :  1.11542e-05
 Reference value :  1.12501e-05
 Reference value :  1.12501e-05
 Reference value :  1.12501e-05
 Reference value :  1.12502e-05
 Reference value :  1.12502e-05
 Reference value :  1.12502e-05
 Reference value :  1.12502e-05
 Reference value :  1.12502e-05
 Reference value :  1.12502e-05
 Reference value :  1.12502e-05
 Reference value :  1.12503e-05
 Reference value :  1.12503e-05
 Reference value :  1.12504e-05
 Reference value :  1.12506e-05
 Reference value :  1.12510e-05
 Reference value :  1.12513e-05
 Reference value :  1.12518e-05
 Reference value :  1.12523e-05
 Reference value :  1.12530e-05
 Reference value :  1.12539e-05
 Reference value :  1.12546e-05
 Reference value :  1.12555e-05
 Reference value :  1.12564e-05
 Reference value :  1.12572e-05
 Reference value :  1.12581e-05
 Reference value :  1.12591e-05
 Reference value :  1.12604e-05
 Reference value :  1.12616e-05
 Reference value :  1.12634e-05
 Reference value :  1.12655e-05
 Reference value :  1.12687e-05
 Reference value :  1.12734e-05
 Reference value :  1.12828e-05
 Reference value :  1.13015e-05
 Reference value :  1.13374e-05
 Reference value :  1.14093e-05
 Reference value :  1.15000e-05
 Reference value :  1.15000e-05
 Reference value :  1.15000e-05
 Reference value :  1.15001e-05
 Reference value :  1.15001e-05
 Reference value :  1.15001e-05
 Reference value :  1.15001e-05
 Reference value :  1.15001e-05
 Reference value :  1.15002e-05
 Reference value :  1.15002e-05
 Reference value :  1.15004e-05
 Reference value :  1.15006e-05
 Reference value :  1.15010e-05
 Reference value :  1.15015e-05
 Reference value :  1.15020e-05
 Reference value :  1.15025e-05
 Reference value :  1.15030e-05
 Reference value :  1.15036e-05
 Reference value :  1.15043e-05
 Reference value :  1.15050e-05
 Reference value :  1.15056e-05
 Reference value :  1.15063e-05
 Reference value :  1.15070e-05
 Reference value :  1.15077e-05
 Reference value :  1.15084e-05
 Reference value :  1.15093e-05
 Reference value :  1.15103e-05
 Reference value :  1.15119e-05
 Reference value :  1.15134e-05
 Reference value :  1.15150e-05
 Reference value :  1.15165e-05
 Reference value :  1.15179e-05
 Reference value :  1.15190e-05
 Reference value :  1.15200e-05
 Reference value :  1.15212e-05
 Reference value :  1.15223e-05
 Reference value :  1.15234e-05
 Reference value :  1.15247e-05
 Reference value :  1.15264e-05
 Reference value :  1.15282e-05
 Reference value :  1.15314e-05
 Reference value :  1.15367e-05
 Reference value :  1.15447e-05
 Reference value :  1.15551e-05
 Reference value :  1.15655e-05
 Reference value :  1.15737e-05
 Reference value :  1.15774e-05
 Reference value :  1.15813e-05
 Reference value :  1.15850e-05
 Reference value :  1.15920e-05
 Reference value :  1.15997e-05
 Reference value :  1.16104e-05
 Reference value :  1.16214e-05
 Reference value :  1.16391e-05
 Reference value :  1.16583e-05
 Reference value :  1.16839e-05
 Reference value :  1.17132e-05
 Reference value :  1.17458e-05
 Reference value :  1.17501e-05
 Reference value :  1.17501e-05
 Reference value :  1.17501e-05
 Reference value :  1.17502e-05
 Reference value :  1.17502e-05
 Reference value :  1.17502e-05
 Reference value :  1.17502e-05
 Reference value :  1.17502e-05
 Reference value :  1.17502e-05
 Reference value :  1.17502e-05
 Reference value :  1.17503e-05
 Reference value :  1.17503e-05
 Reference value :  1.17504e-05
 Reference value :  1.17506e-05
 Reference value :  1.17510e-05
 Reference value :  1.17513e-05
 Reference value :  1.17518e-05
 Reference value :  1.17523e-05
 Reference value :  1.17530e-05
 Reference value :  1.17539e-05
 Reference value :  1.17547e-05
 Reference value :  1.17556e-05
 Reference value :  1.17564e-05
 Reference value :  1.17573e-05
 Reference value :  1.17587e-05
 Reference value :  1.17601e-05
 Reference value :  1.17623e-05
 Reference value :  1.17651e-05
 Reference value :  1.17697e-05
 Reference value :  1.17791e-05
 Reference value :  1.17931e-05
 Reference value :  1.18203e-05
 Reference value :  1.18666e-05
 Reference value :  1.19484e-05
 Reference value :  1.20000e-05
 Reference value :  1.20000e-05
 Reference value :  1.20000e-05
 Reference value :  1.20001e-05
 Reference value :  1.20001e-05
 Reference value :  1.20001e-05
 Reference value :  1.20001e-05
 Reference value :  1.20001e-05
 Reference value :  1.20002e-05
 Reference value :  1.20002e-05
 Reference value :  1.20004e-05
 Reference value :  1.20006e-05
 Reference value :  1.20010e-05
 Reference value :  1.20015e-05
 Reference value :  1.20020e-05
 Reference value :  1.20025e-05
 Reference value :  1.20030e-05
 Reference value :  1.20036e-05
 Reference value :  1.20043e-05
 Reference value :  1.20050e-05
 Reference value :  1.20059e-05
 Reference value :  1.20069e-05
 Reference value :  1.20080e-05
 Reference value :  1.20094e-05
 Reference value :  1.20105e-05
 Reference value :  1.20116e-05
 Reference value :  1.20127e-05
 Reference value :  1.20139e-05
 Reference value :  1.20151e-05
 Reference value :  1.20165e-05
 Reference value :  1.20193e-05
 Reference value :  1.20243e-05
 Reference value :  1.20334e-05
 Reference value :  1.20517e-05
 Reference value :  1.20869e-05
 Reference value :  1.21564e-05
 Reference value :  1.22501e-05
 Reference value :  1.22501e-05
 Reference value :  1.22501e-05
 Reference value :  1.22502e-05
 Reference value :  1.22502e-05
 Reference value :  1.22502e-05
 Reference value :  1.22502e-05
 Reference value :  1.22502e-05
 Reference value :  1.22502e-05
 Reference value :  1.22502e-05
 Reference value :  1.22503e-05
 Reference value :  1.22503e-05
 Reference value :  1.22504e-05
 Reference value :  1.22506e-05
 Reference value :  1.22510e-05
 Reference value :  1.22513e-05
 Reference value :  1.22518e-05
 Reference value :  1.22523e-05
 Reference value :  1.22530e-05
 Reference value :  1.22539e-05
 Reference value :  1.22546e-05
 Reference value :  1.22555e-05
 Reference value :  1.22564e-05
 Reference value :  1.22572e-05
 Reference value :  1.22581e-05
 Reference value :  1.22591e-05
 Reference value :  1.22609e-05
 Reference value :  1.22635e-05
 Reference value :  1.22668e-05
 Reference value :  1.22735e-05
 Reference value :  1.22866e-05
 Reference value :  1.23086e-05
 Reference value :  1.23525e-05
 Reference value :  1.24403e-05
 Reference value :  1.25000e-05
 Reference value :  1.25000e-05
 Reference value :  1.25000e-05
 Reference value :  1.25001e-05
 Reference value :  1.25001e-05
 Reference value :  1.25001e-05
 Reference value :  1.25001e-05
 Reference value :  1.25001e-05
 Reference value :  1.25002e-05
 Reference value :  1.25002e-05
 Reference value :  1.25004e-05
 Reference value :  1.25006e-05
 Reference value :  1.25010e-05
 Reference value :  1.25015e-05
 Reference value :  1.25020e-05
 Reference value :  1.25025e-05
 Reference value :  1.25030e-05
 Reference value :  1.25036e-05
 Reference value :  1.25043e-05
 Reference value :  1.25050e-05
 Reference value :  1.25058e-05
 Reference value :  1.25066e-05
 Reference value :  1.25076e-05
 Reference value :  1.25085e-05
 Reference value :  1.25094e-05
 Reference value :  1.25107e-05
 Reference value :  1.25121e-05
 Reference value :  1.25141e-05
 Reference value :  1.25160e-05
 Reference value :  1.25179e-05
 Reference value :  1.25194e-05
 Reference value :  1.25207e-05
 Reference value :  1.25221e-05
 Reference value :  1.25236e-05
 Reference value :  1.25253e-05
 Reference value :  1.25270e-05
 Reference value :  1.25295e-05
 Reference value :  1.25329e-05
 Reference value :  1.25379e-05
 Reference value :  1.25471e-05
 Reference value :  1.25606e-05
 Reference value :  1.25826e-05
 Reference value :  1.26076e-05
 Reference value :  1.26339e-05
 Reference value :  1.26594e-05
 Reference value :  1.26859e-05
 Reference value :  1.27351e-05
 Reference value :  1.27501e-05
 Reference value :  1.27501e-05
 Reference value :  1.27501e-05
 Reference value :  1.27502e-05
 Reference value :  1.27502e-05
 Reference value :  1.27502e-05
 Reference value :  1.27502e-05
 Reference value :  1.27502e-05
 Reference value :  1.27502e-05
 Reference value :  1.27502e-05
 Reference value :  1.27503e-05
 Reference value :  1.27503e-05
 Reference value :  1.27504e-05
 Reference value :  1.27506e-05
 Reference value :  1.27510e-05
 Reference value :  1.27514e-05
 Reference value :  1.27518e-05
 Reference value :  1.27524e-05
 Reference value :  1.27531e-05
 Reference value :  1.27539e-05
 Reference value :  1.27547e-05
 Reference value :  1.27556e-05
 Reference value :  1.27564e-05
 Reference value :  1.27573e-05
 Reference value :  1.27587e-05
 Reference value :  1.27601e-05
 Reference value :  1.27623e-05
 Reference value :  1.27651e-05
 Reference value :  1.27697e-05
 Reference value :  1.27788e-05
 Reference value :  1.27926e-05
 Reference value :  1.28191e-05
 Reference value :  1.28643e-05
 Reference value :  1.29438e-05
 Reference value :  1.30000e-05
 Reference value :  1.30000e-05
 Reference value :  1.30000e-05
 Reference value :  1.30001e-05
 Reference value :  1.30001e-05
 Reference value :  1.30001e-05
 Reference value :  1.30001e-05
 Reference value :  1.30001e-05
 Reference value :  1.30002e-05
 Reference value :  1.30002e-05
 Reference value :  1.30004e-05
 Reference value :  1.30006e-05
 Reference value :  1.30010e-05
 Reference value :  1.30015e-05
 Reference value :  1.30020e-05
 Reference value :  1.30025e-05
 Reference value :  1.30030e-05
 Reference value :  1.30036e-05
 Reference value :  1.30043e-05
 Reference value :  1.30050e-05
 Reference value :  1.30058e-05
 Reference value :  1.30068e-05
 Reference value :  1.30078e-05
 Reference value :  1.30092e-05
 Reference value :  1.30103e-05
 Reference value :  1.30114e-05
 Reference value :  1.30125e-05
 Reference value :  1.30136e-05
 Reference value :  1.30149e-05
 Reference value :  1.30163e-05
 Reference value :  1.30191e-05
 Reference value :  1.30235e-05
 Reference value :  1.30324e-05
 Reference value :  1.30499e-05
 Reference value :  1.30826e-05
 Reference value :  1.31480e-05
 Reference value :  1.32501e-05
 Reference value :  1.32501e-05
 Reference value :  1.32501e-05
 Reference value :  1.32502e-05
 Reference value :  1.32502e-05
 Reference value :  1.32502e-05
 Reference value :  1.32502e-05
 Reference value :  1.32502e-05
 Reference value :  1.32502e-05
 Reference value :  1.32502e-05
 Reference value :  1.32503e-05
 Reference value :  1.32503e-05
 Reference value :  1.32504e-05
 Reference value :  1.32506e-05
 Reference value :  1.32510e-05
 Reference value :  1.32513e-05
 Reference value :  1.32518e-05
 Reference value :  1.32523e-05
 Reference value :  1.32530e-05
 Reference value :  1.32539e-05
 Reference value :  1.32546e-05
 Reference value :  1.32555e-05
 Reference value :  1.32564e-05
 Reference value :  1.32571e-05
 Reference value :  1.32580e-05
 Reference value :  1.32591e-05
 Reference value :  1.32609e-05
 Reference value :  1.32634e-05
 Reference value :  1.32667e-05
 Reference value :  1.32733e-05
 Reference value :  1.32864e-05
 Reference value :  1.33083e-05
 Reference value :  1.33521e-05
 Reference value :  1.34397e-05
 Reference value :  1.35000e-05
 Reference value :  1.35000e-05
 Reference value :  1.35000e-05
 Reference value :  1.35001e-05
 Reference value :  1.35001e-05
 Reference value :  1.35001e-05
 Reference value :  1.35001e-05
 Reference value :  1.35001e-05
 Reference value :  1.35002e-05
 Reference value :  1.35002e-05
 Reference value :  1.35004e-05
 Reference value :  1.35006e-05
 Reference value :  1.35010e-05
 Reference value :  1.35015e-05
 Reference value :  1.35020e-05
 Reference value :  1.35025e-05
 Reference value :  1.35030e-05
 Reference value :  1.35036e-05
 Reference value :  1.35043e-05
 Reference value :  1.35050e-05
 Reference value :  1.35058e-05
 Reference value :  1.35066e-05
 Reference value :  1.35074e-05
 Reference value :  1.35081e-05
 Reference value :  1.35090e-05
 Reference value :  1.35101e-05
 Reference value :  1.35114e-05
 Reference value :  1.35137e-05
 Reference value :  1.35158e-05
 Reference value :  1.35176e-05
 Reference value :  1.35190e-05
 Reference value :  1.35204e-05
 Reference value :  1.35218e-05
 Reference value :  1.35231e-05
 Reference value :  1.35245e-05
 Reference value :  1.35260e-05
 Reference value :  1.35281e-05
 Reference value :  1.35304e-05
 Reference value :  1.35349e-05
 Reference value :  1.35409e-05
 Reference value :  1.35481e-05
 Reference value :  1.35549e-05
 Reference value :  1.35601e-05
 Reference value :  1.35664e-05
 Reference value :  1.35711e-05
 Reference value :  1.35763e-05
 Reference value :  1.35814e-05
 Reference value :  1.35869e-05
 Reference value :  1.35951e-05
 Reference value :  1.36029e-05
 Reference value :  1.36105e-05
 Reference value :  1.36200e-05
 Reference value :  1.36295e-05
 Reference value :  1.36485e-05
 Reference value :  1.36855e-05
 Reference value :  1.37433e-05
 Reference value :  1.37501e-05
 Reference value :  1.37501e-05
 Reference value :  1.37501e-05
 Reference value :  1.37502e-05
 Reference value :  1.37502e-05
 Reference value :  1.37502e-05
 Reference value :  1.37502e-05
 Reference value :  1.37502e-05
 Reference value :  1.37502e-05
 Reference value :  1.37502e-05
 Reference value :  1.37503e-05
 Reference value :  1.37503e-05
 Reference value :  1.37504e-05
 Reference value :  1.37506e-05
 Reference value :  1.37510e-05
 Reference value :  1.37513e-05
 Reference value :  1.37518e-05
 Reference value :  1.37523e-05
 Reference value :  1.37531e-05
 Reference value :  1.37539e-05
 Reference value :  1.37546e-05
 Reference value :  1.37554e-05
 Reference value :  1.37562e-05
 Reference value :  1.37570e-05
 Reference value :  1.37582e-05
 Reference value :  1.37594e-05
 Reference value :  1.37614e-05
 Reference value :  1.37640e-05
 Reference value :  1.37675e-05
 Reference value :  1.37745e-05
 Reference value :  1.37878e-05
 Reference value :  1.38106e-05
 Reference value :  1.38561e-05
 Reference value :  1.39472e-05
 Reference value :  1.40000e-05
 Reference value :  1.40000e-05
 Reference value :  1.40000e-05
 Reference value :  1.40001e-05
 Reference value :  1.40001e-05
 Reference value :  1.40001e-05
 Reference value :  1.40001e-05
 Reference value :  1.40001e-05
 Reference value :  1.40002e-05
 Reference value :  1.40002e-05
 Reference value :  1.40004e-05
 Reference value :  1.40006e-05
 Reference value :  1.40010e-05
 Reference value :  1.40015e-05
 Reference value :  1.40020e-05
 Reference value :  1.40025e-05
 Reference value :  1.40030e-05
 Reference value :  1.40036e-05
 Reference value :  1.40042e-05
 Reference value :  1.40049e-05
 Reference value :  1.40058e-05
 Reference value :  1.40068e-05
 Reference value :  1.40079e-05
 Reference value :  1.40092e-05
 Reference value :  1.40102e-05
 Reference value :  1.40114e-05
 Reference value :  1.40123e-05
 Reference value :  1.40135e-05
 Reference value :  1.40147e-05
 Reference value :  1.40161e-05
 Reference value :  1.40189e-05
 Reference value :  1.40233e-05
 Reference value :  1.40321e-05
 Reference value :  1.40498e-05
 Reference value :  1.40839e-05
 Reference value :  1.41522e-05
 Reference value :  1.42501e-05
 Reference value :  1.42501e-05
 Reference value :  1.42501e-05
 Reference value :  1.42502e-05
 Reference value :  1.42502e-05
 Reference value :  1.42502e-05
 Reference value :  1.42502e-05
 Reference value :  1.42502e-05
 Reference value :  1.42502e-05
 Reference value :  1.42502e-05
 Reference value :  1.42503e-05
 Reference value :  1.42503e-05
 Reference value :  1.42504e-05
 Reference value :  1.42506e-05
 Reference value :  1.42510e-05
 Reference value :  1.42513e-05
 Reference value :  1.42518e-05
 Reference value :  1.42523e-05
 Reference value :  1.42530e-05
 Reference value :  1.42539e-05
 Reference value :  1.42546e-05
 Reference value :  1.42555e-05
 Reference value :  1.42563e-05
 Reference value :  1.42571e-05
 Reference value :  1.42580e-05
 Reference value :  1.42590e-05
 Reference value :  1.42601e-05
 Reference value :  1.42614e-05
 Reference value :  1.42635e-05
 Reference value :  1.42654e-05
 Reference value :  1.42687e-05
 Reference value :  1.42729e-05
 Reference value :  1.42813e-05
 Reference value :  1.42981e-05
 Reference value :  1.43292e-05
 Reference value :  1.43915e-05
 Reference value :  1.45000e-05
 Reference value :  1.45000e-05
 Reference value :  1.45000e-05
 Reference value :  1.45001e-05
 Reference value :  1.45001e-05
 Reference value :  1.45001e-05
 Reference value :  1.45001e-05
 Reference value :  1.45001e-05
 Reference value :  1.45002e-05
 Reference value :  1.45002e-05
 Reference value :  1.45004e-05
 Reference value :  1.45006e-05
 Reference value :  1.45010e-05
 Reference value :  1.45015e-05
 Reference value :  1.45020e-05
 Reference value :  1.45025e-05
 Reference value :  1.45030e-05
 Reference value :  1.45036e-05
 Reference value :  1.45043e-05
 Reference value :  1.45050e-05
 Reference value :  1.45056e-05
 Reference value :  1.45063e-05
 Reference value :  1.45070e-05
 Reference value :  1.45078e-05
 Reference value :  1.45085e-05
 Reference value :  1.45095e-05
 Reference value :  1.45105e-05
 Reference value :  1.45120e-05
 Reference value :  1.45130e-05
 Reference value :  1.45142e-05
 Reference value :  1.45154e-05
 Reference value :  1.45168e-05
 Reference value :  1.45181e-05
 Reference value :  1.45191e-05
 Reference value :  1.45200e-05
 Reference value :  1.45211e-05
 Reference value :  1.45222e-05
 Reference value :  1.45232e-05
 Reference value :  1.45245e-05
 Reference value :  1.45259e-05
 Reference value :  1.45280e-05
 Reference value :  1.45308e-05
 Reference value :  1.45364e-05
 Reference value :  1.45417e-05
 Reference value :  1.45473e-05
 Reference value :  1.45539e-05
 Reference value :  1.45641e-05
 Reference value :  1.45774e-05
 Reference value :  1.46039e-05
 Reference value :  1.46484e-05
 Reference value :  1.47374e-05
 Reference value :  1.47501e-05
 Reference value :  1.47501e-05
 Reference value :  1.47501e-05
 Reference value :  1.47502e-05
 Reference value :  1.47502e-05
 Reference value :  1.47502e-05
 Reference value :  1.47502e-05
 Reference value :  1.47502e-05
 Reference value :  1.47502e-05
 Reference value :  1.47502e-05
 Reference value :  1.47503e-05
 Reference value :  1.47503e-05
 Reference value :  1.47504e-05
 Reference value :  1.47506e-05
 Reference value :  1.47510e-05
 Reference value :  1.47514e-05
 Reference value :  1.47518e-05
 Reference value :  1.47524e-05
 Reference value :  1.47531e-05
 Reference value :  1.47539e-05
 Reference value :  1.47546e-05
 Reference value :  1.47555e-05
 Reference value :  1.47564e-05
 Reference value :  1.47572e-05
 Reference value :  1.47587e-05
 Reference value :  1.47600e-05
 Reference value :  1.47621e-05
 Reference value :  1.47649e-05
 Reference value :  1.47693e-05
 Reference value :  1.47782e-05
 Reference value :  1.47918e-05
 Reference value :  1.48177e-05
 Reference value :  1.48624e-05
 Reference value :  1.49446e-05
 Reference value :  1.50000e-05
 Reference value :  1.50000e-05
 Reference value :  1.50000e-05
 Reference value :  1.50001e-05
 Reference value :  1.50001e-05
 Reference value :  1.50001e-05
 Reference value :  1.50001e-05
 Reference value :  1.50001e-05
 Reference value :  1.50002e-05
 Reference value :  1.50002e-05
 Reference value :  1.50004e-05
 Reference value :  1.50006e-05
 Reference value :  1.50010e-05
 Reference value :  1.50015e-05
 Reference value :  1.50020e-05
 Reference value :  1.50025e-05
 Reference value :  1.50030e-05
 Reference value :  1.50036e-05
 Reference value :  1.50042e-05
 Reference value :  1.50049e-05
 Reference value :  1.50057e-05
 Reference value :  1.50068e-05
 Reference value :  1.50078e-05
 Reference value :  1.50093e-05
 Reference value :  1.50103e-05
 Reference value :  1.50114e-05
 Reference value :  1.50124e-05
 Reference value :  1.50136e-05
 Reference value :  1.50149e-05
 Reference value :  1.50163e-05
 Reference value :  1.50192e-05
 Reference value :  1.50235e-05
 Reference value :  1.50322e-05
 Reference value :  1.50495e-05
 Reference value :  1.50826e-05
 Reference value :  1.51489e-05
 Reference value :  1.52501e-05
 Reference value :  1.52501e-05
 Reference value :  1.52501e-05
 Reference value :  1.52502e-05
 Reference value :  1.52502e-05
 Reference value :  1.52502e-05
 Reference value :  1.52502e-05
 Reference value :  1.52502e-05
 Reference value :  1.52502e-05
 Reference value :  1.52502e-05
 Reference value :  1.52503e-05
 Reference value :  1.52503e-05
 Reference value :  1.52504e-05
 Reference value :  1.52506e-05
 Reference value :  1.52510e-05
 Reference value :  1.52513e-05
 Reference value :  1.52518e-05
 Reference value :  1.52523e-05
 Reference value :  1.52530e-05
 Reference value :  1.52539e-05
 Reference value :  1.52546e-05
 Reference value :  1.52555e-05
 Reference value :  1.52564e-05
 Reference value :  1.52572e-05
 Reference value :  1.52581e-05
 Reference value :  1.52591e-05
 Reference value :  1.52603e-05
 Reference value :  1.52615e-05
 Reference value :  1.52634e-05
 Reference value :  1.52655e-05
 Reference value :  1.52686e-05
 Reference value :  1.52732e-05
 Reference value :  1.52824e-05
 Reference value :  1.53009e-05
 Reference value :  1.53361e-05
 Reference value :  1.54067e-05
 Reference value :  1.55000e-05
 Reference value :  1.55013e-05
 Reference value :  1.55040e-05
[...]
 Reference value :  1.65790e-04
 Reference value :  1.65814e-04
 Reference value :  1.65858e-04
 Reference value :  1.65946e-04
 Reference value :  1.66000e-04
 Reference value :  1.66000e-04
 Reference value :  1.66000e-04
 Reference value :  1.66000e-04
 Reference value :  1.66000e-04
 Reference value :  1.66000e-04
 Reference value :  1.66000e-04
 Reference value :  1.66000e-04
 Reference value :  1.66000e-04
 Reference value :  1.66000e-04
 Reference value :  1.66000e-04
 Reference value :  1.66001e-04
 Reference value :  1.66001e-04
 Reference value :  1.66001e-04
 Reference value :  1.66002e-04
 Reference value :  1.66002e-04
 Reference value :  1.66003e-04
 Reference value :  1.66004e-04
 Reference value :  1.66004e-04
 Reference value :  1.66005e-04
 Reference value :  1.66006e-04
 Reference value :  1.66007e-04
 Reference value :  1.66008e-04
 Reference value :  1.66009e-04
 Reference value :  1.66010e-04
 Reference value :  1.66011e-04
 Reference value :  1.66012e-04
 Reference value :  1.66013e-04
 Reference value :  1.66015e-04
 Reference value :  1.66016e-04
 Reference value :  1.66019e-04
 Reference value :  1.66024e-04
 Reference value :  1.66033e-04
 Reference value :  1.66052e-04
 Reference value :  1.66091e-04
 Reference value :  1.66167e-04
 Reference value :  1.66250e-04
 Reference value :  1.66250e-04
 Reference value :  1.66250e-04
 Reference value :  1.66250e-04
 Reference value :  1.66250e-04
 Reference value :  1.66250e-04
 Reference value :  1.66250e-04
 Reference value :  1.66250e-04
 Reference value :  1.66250e-04
 Reference value :  1.66250e-04
 Reference value :  1.66250e-04
 Reference value :  1.66250e-04
 Reference value :  1.66250e-04
 Reference value :  1.66251e-04
 Reference value :  1.66251e-04
 Reference value :  1.66251e-04
 Reference value :  1.66252e-04
 Reference value :  1.66252e-04
 Reference value :  1.66253e-04
 Reference value :  1.66254e-04
 Reference value :  1.66255e-04
 Reference value :  1.66256e-04
 Reference value :  1.66256e-04
 Reference value :  1.66257e-04
 Reference value :  1.66258e-04
 Reference value :  1.66259e-04
 Reference value :  1.66260e-04
 Reference value :  1.66262e-04
 Reference value :  1.66263e-04
 Reference value :  1.66265e-04
 Reference value :  1.66269e-04
 Reference value :  1.66273e-04
 Reference value :  1.66282e-04
 Reference value :  1.66301e-04
 Reference value :  1.66336e-04
 Reference value :  1.66406e-04
 Reference value :  1.66500e-04
 Reference value :  1.66500e-04
 Reference value :  1.66500e-04
 Reference value :  1.66500e-04
 Reference value :  1.66500e-04
 Reference value :  1.66500e-04
 Reference value :  1.66500e-04
 Reference value :  1.66500e-04
 Reference value :  1.66500e-04
 Reference value :  1.66500e-04
 Reference value :  1.66500e-04
 Reference value :  1.66501e-04
 Reference value :  1.66501e-04
 Reference value :  1.66501e-04
 Reference value :  1.66502e-04
 Reference value :  1.66502e-04
 Reference value :  1.66503e-04
 Reference value :  1.66504e-04
 Reference value :  1.66504e-04
 Reference value :  1.66505e-04
 Reference value :  1.66506e-04
 Reference value :  1.66506e-04
 Reference value :  1.66507e-04
 Reference value :  1.66508e-04
 Reference value :  1.66508e-04
 Reference value :  1.66509e-04
 Reference value :  1.66510e-04
 Reference value :  1.66512e-04
 Reference value :  1.66513e-04
 Reference value :  1.66514e-04
 Reference value :  1.66515e-04
 Reference value :  1.66517e-04
 Reference value :  1.66518e-04
 Reference value :  1.66519e-04
 Reference value :  1.66521e-04
 Reference value :  1.66522e-04
 Reference value :  1.66523e-04
 Reference value :  1.66525e-04
 Reference value :  1.66526e-04
 Reference value :  1.66529e-04
 Reference value :  1.66531e-04
 Reference value :  1.66536e-04
 Reference value :  1.66543e-04
 Reference value :  1.66551e-04
 Reference value :  1.66558e-04
 Reference value :  1.66563e-04
 Reference value :  1.66568e-04
 Reference value :  1.66575e-04
 Reference value :  1.66585e-04
 Reference value :  1.66597e-04
 Reference value :  1.66614e-04
 Reference value :  1.66631e-04
 Reference value :  1.66650e-04
 Reference value :  1.66664e-04
 Reference value :  1.66687e-04
 Reference value :  1.66705e-04
 Reference value :  1.66722e-04
 Reference value :  1.66748e-04
 Reference value :  1.66750e-04
 Reference value :  1.66750e-04
 Reference value :  1.66750e-04
 Reference value :  1.66750e-04
 Reference value :  1.66750e-04
 Reference value :  1.66750e-04
 Reference value :  1.66750e-04
 Reference value :  1.66750e-04
 Reference value :  1.66750e-04
 Reference value :  1.66750e-04
 Reference value :  1.66750e-04
 Reference value :  1.66750e-04
 Reference value :  1.66750e-04
 Reference value :  1.66751e-04
 Reference value :  1.66751e-04
 Reference value :  1.66751e-04
 Reference value :  1.66752e-04
 Reference value :  1.66752e-04
 Reference value :  1.66753e-04
 Reference value :  1.66754e-04
 Reference value :  1.66755e-04
 Reference value :  1.66755e-04
 Reference value :  1.66756e-04
 Reference value :  1.66757e-04
 Reference value :  1.66759e-04
 Reference value :  1.66760e-04
 Reference value :  1.66762e-04
 Reference value :  1.66765e-04
 Reference value :  1.66769e-04
 Reference value :  1.66778e-04
 Reference value :  1.66792e-04
 Reference value :  1.66817e-04
 Reference value :  1.66862e-04
 Reference value :  1.66951e-04
 Reference value :  1.67000e-04
 Reference value :  1.67000e-04
 Reference value :  1.67000e-04
 Reference value :  1.67000e-04
 Reference value :  1.67000e-04
 Reference value :  1.67000e-04
 Reference value :  1.67000e-04
 Reference value :  1.67000e-04
 Reference value :  1.67000e-04
 Reference value :  1.67000e-04
 Reference value :  1.67000e-04
 Reference value :  1.67001e-04
 Reference value :  1.67001e-04
 Reference value :  1.67001e-04
 Reference value :  1.67002e-04
 Reference value :  1.67002e-04
 Reference value :  1.67003e-04
 Reference value :  1.67004e-04
 Reference value :  1.67004e-04
 Reference value :  1.67005e-04
 Reference value :  1.67006e-04
 Reference value :  1.67007e-04
 Reference value :  1.67008e-04
 Reference value :  1.67009e-04
 Reference value :  1.67010e-04
 Reference value :  1.67011e-04
 Reference value :  1.67012e-04
 Reference value :  1.67014e-04
 Reference value :  1.67015e-04
 Reference value :  1.67016e-04
 Reference value :  1.67019e-04
 Reference value :  1.67023e-04
 Reference value :  1.67032e-04
 Reference value :  1.67050e-04
 Reference value :  1.67083e-04
 Reference value :  1.67151e-04
 Reference value :  1.67250e-04
 Reference value :  1.67250e-04
 Reference value :  1.67250e-04
 Reference value :  1.67250e-04
 Reference value :  1.67250e-04
 Reference value :  1.67250e-04
 Reference value :  1.67250e-04
 Reference value :  1.67250e-04
 Reference value :  1.67250e-04
 Reference value :  1.67250e-04
 Reference value :  1.67250e-04
 Reference value :  1.67250e-04
 Reference value :  1.67250e-04
 Reference value :  1.67251e-04
 Reference value :  1.67251e-04
 Reference value :  1.67251e-04
 Reference value :  1.67252e-04
 Reference value :  1.67252e-04
 Reference value :  1.67253e-04
 Reference value :  1.67254e-04
 Reference value :  1.67255e-04
 Reference value :  1.67256e-04
 Reference value :  1.67256e-04
 Reference value :  1.67257e-04
 Reference value :  1.67258e-04
 Reference value :  1.67259e-04
 Reference value :  1.67260e-04
 Reference value :  1.67262e-04
 Reference value :  1.67263e-04
 Reference value :  1.67265e-04
 Reference value :  1.67269e-04
 Reference value :  1.67273e-04
 Reference value :  1.67282e-04
 Reference value :  1.67301e-04
 Reference value :  1.67336e-04
 Reference value :  1.67407e-04
 Reference value :  1.67500e-04
 Reference value :  1.67500e-04
 Reference value :  1.67500e-04
 Reference value :  1.67500e-04
 Reference value :  1.67500e-04
 Reference value :  1.67500e-04
 Reference value :  1.67500e-04
 Reference value :  1.67500e-04
 Reference value :  1.67500e-04
 Reference value :  1.67500e-04
 Reference value :  1.67500e-04
 Reference value :  1.67501e-04
 Reference value :  1.67501e-04
 Reference value :  1.67501e-04
 Reference value :  1.67502e-04
 Reference value :  1.67502e-04
 Reference value :  1.67503e-04
 Reference value :  1.67504e-04
 Reference value :  1.67504e-04
 Reference value :  1.67505e-04
 Reference value :  1.67506e-04
 Reference value :  1.67506e-04
 Reference value :  1.67507e-04
 Reference value :  1.67508e-04
 Reference value :  1.67508e-04
 Reference value :  1.67509e-04
 Reference value :  1.67510e-04
 Reference value :  1.67512e-04
 Reference value :  1.67513e-04
 Reference value :  1.67514e-04
 Reference value :  1.67515e-04
 Reference value :  1.67517e-04
 Reference value :  1.67518e-04
 Reference value :  1.67519e-04
 Reference value :  1.67520e-04
 Reference value :  1.67521e-04
 Reference value :  1.67522e-04
 Reference value :  1.67523e-04
 Reference value :  1.67525e-04
 Reference value :  1.67526e-04
 Reference value :  1.67528e-04
 Reference value :  1.67531e-04
 Reference value :  1.67534e-04
 Reference value :  1.67538e-04
 Reference value :  1.67542e-04
 Reference value :  1.67545e-04
 Reference value :  1.67547e-04
 Reference value :  1.67551e-04
 Reference value :  1.67555e-04
 Reference value :  1.67559e-04
 Reference value :  1.67566e-04
 Reference value :  1.67576e-04
 Reference value :  1.67590e-04
 Reference value :  1.67613e-04
 Reference value :  1.67647e-04
 Reference value :  1.67702e-04
 Reference value :  1.67750e-04
 Reference value :  1.67750e-04
 Reference value :  1.67750e-04
 Reference value :  1.67750e-04
 Reference value :  1.67750e-04
 Reference value :  1.67750e-04
 Reference value :  1.67750e-04
 Reference value :  1.67750e-04
 Reference value :  1.67750e-04
 Reference value :  1.67750e-04
 Reference value :  1.67750e-04
 Reference value :  1.67750e-04
 Reference value :  1.67750e-04
 Reference value :  1.67751e-04
 Reference value :  1.67751e-04
 Reference value :  1.67751e-04
 Reference value :  1.67752e-04
 Reference value :  1.67752e-04
 Reference value :  1.67753e-04
 Reference value :  1.67754e-04
 Reference value :  1.67755e-04
 Reference value :  1.67756e-04
 Reference value :  1.67756e-04
 Reference value :  1.67757e-04
 Reference value :  1.67759e-04
 Reference value :  1.67760e-04
 Reference value :  1.67762e-04
 Reference value :  1.67765e-04
 Reference value :  1.67770e-04
 Reference value :  1.67779e-04
 Reference value :  1.67793e-04
 Reference value :  1.67820e-04
 Reference value :  1.67866e-04
 Reference value :  1.67948e-04
 Reference value :  1.68000e-04
 Reference value :  1.68000e-04
 Reference value :  1.68000e-04
 Reference value :  1.68000e-04
 Reference value :  1.68000e-04
 Reference value :  1.68000e-04
 Reference value :  1.68000e-04
 Reference value :  1.68000e-04
 Reference value :  1.68000e-04
 Reference value :  1.68000e-04
 Reference value :  1.68000e-04
 Reference value :  1.68001e-04
 Reference value :  1.68001e-04
 Reference value :  1.68001e-04
 Reference value :  1.68002e-04
 Reference value :  1.68002e-04
 Reference value :  1.68003e-04
 Reference value :  1.68004e-04
 Reference value :  1.68004e-04
 Reference value :  1.68005e-04
 Reference value :  1.68006e-04
 Reference value :  1.68007e-04
 Reference value :  1.68008e-04
 Reference value :  1.68009e-04
 Reference value :  1.68010e-04
 Reference value :  1.68012e-04
 Reference value :  1.68013e-04
 Reference value :  1.68014e-04
 Reference value :  1.68015e-04
 Reference value :  1.68017e-04
 Reference value :  1.68020e-04
 Reference value :  1.68024e-04
 Reference value :  1.68032e-04
 Reference value :  1.68047e-04
 Reference value :  1.68072e-04
 Reference value :  1.68122e-04
 Reference value :  1.68211e-04
 Reference value :  1.68250e-04
 Reference value :  1.68250e-04
 Reference value :  1.68250e-04
 Reference value :  1.68250e-04
 Reference value :  1.68250e-04
 Reference value :  1.68250e-04
 Reference value :  1.68250e-04
 Reference value :  1.68250e-04
 Reference value :  1.68250e-04
 Reference value :  1.68250e-04
 Reference value :  1.68250e-04
 Reference value :  1.68250e-04
 Reference value :  1.68250e-04
 Reference value :  1.68251e-04
 Reference value :  1.68251e-04
 Reference value :  1.68251e-04
 Reference value :  1.68252e-04
 Reference value :  1.68252e-04
 Reference value :  1.68253e-04
 Reference value :  1.68254e-04
 Reference value :  1.68255e-04
 Reference value :  1.68256e-04
 Reference value :  1.68256e-04
 Reference value :  1.68257e-04
 Reference value :  1.68258e-04
 Reference value :  1.68259e-04
 Reference value :  1.68261e-04
 Reference value :  1.68263e-04
 Reference value :  1.68267e-04
 Reference value :  1.68273e-04
 Reference value :  1.68285e-04
 Reference value :  1.68306e-04
 Reference value :  1.68348e-04
 Reference value :  1.68432e-04
 Reference value :  1.68500e-04
 Reference value :  1.68500e-04
 Reference value :  1.68500e-04
 Reference value :  1.68500e-04
 Reference value :  1.68500e-04
 Reference value :  1.68500e-04
 Reference value :  1.68500e-04
 Reference value :  1.68500e-04
 Reference value :  1.68500e-04
 Reference value :  1.68500e-04
 Reference value :  1.68500e-04
 Reference value :  1.68501e-04
 Reference value :  1.68501e-04
 Reference value :  1.68501e-04
 Reference value :  1.68502e-04
 Reference value :  1.68502e-04
 Reference value :  1.68503e-04
 Reference value :  1.68504e-04
 Reference value :  1.68504e-04
 Reference value :  1.68505e-04
 Reference value :  1.68506e-04
 Reference value :  1.68507e-04
 Reference value :  1.68507e-04
 Reference value :  1.68508e-04
 Reference value :  1.68509e-04
 Reference value :  1.68510e-04
 Reference value :  1.68511e-04
 Reference value :  1.68514e-04
 Reference value :  1.68516e-04
 Reference value :  1.68518e-04
 Reference value :  1.68520e-04
 Reference value :  1.68521e-04
 Reference value :  1.68523e-04
 Reference value :  1.68524e-04
 Reference value :  1.68526e-04
 Reference value :  1.68528e-04
 Reference value :  1.68531e-04
 Reference value :  1.68535e-04
 Reference value :  1.68541e-04
 Reference value :  1.68548e-04
 Reference value :  1.68560e-04
 Reference value :  1.68575e-04
 Reference value :  1.68606e-04
 Reference value :  1.68666e-04
 Reference value :  1.68745e-04
 Reference value :  1.68750e-04
 Reference value :  1.68750e-04
 Reference value :  1.68750e-04
 Reference value :  1.68750e-04
 Reference value :  1.68750e-04
 Reference value :  1.68750e-04
 Reference value :  1.68750e-04
 Reference value :  1.68750e-04
 Reference value :  1.68750e-04
 Reference value :  1.68750e-04
 Reference value :  1.68750e-04
 Reference value :  1.68750e-04
 Reference value :  1.68750e-04
 Reference value :  1.68751e-04
 Reference value :  1.68751e-04
 Reference value :  1.68751e-04
 Reference value :  1.68752e-04
 Reference value :  1.68752e-04
 Reference value :  1.68753e-04
 Reference value :  1.68754e-04
 Reference value :  1.68755e-04
 Reference value :  1.68755e-04
 Reference value :  1.68756e-04
 Reference value :  1.68757e-04
 Reference value :  1.68758e-04
 Reference value :  1.68760e-04
 Reference value :  1.68762e-04
 Reference value :  1.68765e-04
 Reference value :  1.68769e-04
 Reference value :  1.68777e-04
 Reference value :  1.68790e-04
 Reference value :  1.68814e-04
 Reference value :  1.68857e-04
 Reference value :  1.68944e-04
 Reference value :  1.69000e-04
 Reference value :  1.69000e-04
 Reference value :  1.69000e-04
 Reference value :  1.69000e-04
 Reference value :  1.69000e-04
 Reference value :  1.69000e-04
 Reference value :  1.69000e-04
 Reference value :  1.69000e-04
 Reference value :  1.69000e-04
 Reference value :  1.69000e-04
 Reference value :  1.69000e-04
 Reference value :  1.69001e-04
 Reference value :  1.69001e-04
 Reference value :  1.69001e-04
 Reference value :  1.69002e-04
 Reference value :  1.69002e-04
 Reference value :  1.69003e-04
 Reference value :  1.69004e-04
 Reference value :  1.69004e-04
 Reference value :  1.69005e-04
 Reference value :  1.69006e-04
 Reference value :  1.69007e-04
 Reference value :  1.69008e-04
 Reference value :  1.69009e-04
 Reference value :  1.69010e-04
 Reference value :  1.69012e-04
 Reference value :  1.69013e-04
 Reference value :  1.69014e-04
 Reference value :  1.69015e-04
 Reference value :  1.69016e-04
 Reference value :  1.69019e-04
 Reference value :  1.69024e-04
 Reference value :  1.69033e-04
 Reference value :  1.69051e-04
 Reference value :  1.69086e-04
 Reference value :  1.69156e-04
 Reference value :  1.69250e-04
 Reference value :  1.69250e-04
 Reference value :  1.69250e-04
 Reference value :  1.69250e-04
 Reference value :  1.69250e-04
 Reference value :  1.69250e-04
 Reference value :  1.69250e-04
 Reference value :  1.69250e-04
 Reference value :  1.69250e-04
 Reference value :  1.69250e-04
 Reference value :  1.69250e-04
 Reference value :  1.69250e-04
 Reference value :  1.69250e-04
 Reference value :  1.69251e-04
 Reference value :  1.69251e-04
 Reference value :  1.69251e-04
 Reference value :  1.69252e-04
 Reference value :  1.69252e-04
 Reference value :  1.69253e-04
 Reference value :  1.69254e-04
 Reference value :  1.69255e-04
 Reference value :  1.69255e-04
 Reference value :  1.69256e-04
 Reference value :  1.69257e-04
 Reference value :  1.69258e-04
 Reference value :  1.69259e-04
 Reference value :  1.69261e-04
 Reference value :  1.69263e-04
 Reference value :  1.69266e-04
 Reference value :  1.69272e-04
 Reference value :  1.69284e-04
 Reference value :  1.69305e-04
 Reference value :  1.69345e-04
 Reference value :  1.69426e-04
 Reference value :  1.69500e-04
 Reference value :  1.69500e-04
 Reference value :  1.69500e-04
 Reference value :  1.69500e-04
 Reference value :  1.69500e-04
 Reference value :  1.69500e-04
 Reference value :  1.69500e-04
 Reference value :  1.69500e-04
 Reference value :  1.69500e-04
 Reference value :  1.69500e-04
 Reference value :  1.69500e-04
 Reference value :  1.69501e-04
 Reference value :  1.69501e-04
 Reference value :  1.69501e-04
 Reference value :  1.69502e-04
 Reference value :  1.69502e-04
 Reference value :  1.69503e-04
 Reference value :  1.69504e-04
 Reference value :  1.69504e-04
 Reference value :  1.69505e-04
 Reference value :  1.69506e-04
 Reference value :  1.69507e-04
 Reference value :  1.69507e-04
 Reference value :  1.69508e-04
 Reference value :  1.69509e-04
 Reference value :  1.69510e-04
 Reference value :  1.69512e-04
 Reference value :  1.69514e-04
 Reference value :  1.69517e-04
 Reference value :  1.69518e-04
 Reference value :  1.69521e-04
 Reference value :  1.69523e-04
 Reference value :  1.69526e-04
 Reference value :  1.69530e-04
 Reference value :  1.69536e-04
 Reference value :  1.69545e-04
 Reference value :  1.69559e-04
 Reference value :  1.69582e-04
 Reference value :  1.69621e-04
 Reference value :  1.69699e-04
 Reference value :  1.69750e-04
 Reference value :  1.69750e-04
 Reference value :  1.69750e-04
 Reference value :  1.69750e-04
 Reference value :  1.69750e-04
 Reference value :  1.69750e-04
 Reference value :  1.69750e-04
 Reference value :  1.69750e-04
 Reference value :  1.69750e-04
 Reference value :  1.69750e-04
 Reference value :  1.69750e-04
 Reference value :  1.69750e-04
 Reference value :  1.69750e-04
 Reference value :  1.69751e-04
 Reference value :  1.69751e-04
 Reference value :  1.69751e-04
 Reference value :  1.69752e-04
 Reference value :  1.69752e-04
 Reference value :  1.69753e-04
 Reference value :  1.69754e-04
 Reference value :  1.69755e-04
 Reference value :  1.69756e-04
 Reference value :  1.69757e-04
 Reference value :  1.69759e-04
 Reference value :  1.69761e-04
 Reference value :  1.69763e-04
 Reference value :  1.69766e-04
 Reference value :  1.69771e-04
 Reference value :  1.69780e-04
 Reference value :  1.69798e-04
 Reference value :  1.69834e-04
 Reference value :  1.69907e-04
 Reference value :  1.70000e-04
No. of Data Rows : 26825
ngspice-44 done
