
Note: Compatibility modes selected: hs a


Circuit: ** sch_path: /home/ece/cace/sar-adc-using-sky130-pdk/runs/run_2025-10-12_02-30-19/parameters/dnl/run_0/sar_output_dnl.sch

option SCALE: Scale is set to 1e-06 for instance and model parameters
option SCALE: Scale is set to 1e-06 for instance and model parameters
option SCALE: Scale is set to 1e-06 for instance and model parameters
option SCALE: Scale is set to 1e-06 for instance and model parameters
Doing analysis at TEMP = -40.000000 and TNOM = 27.000000

Using KLU as Direct Linear Solver
Operating point simulation skipped by 'uic',
  now using transient initial conditions.
 Reference value :  1.00000e-12
 Reference value :  1.02772e-12
 Reference value :  1.08316e-12
 Reference value :  1.19404e-12
 Reference value :  1.33848e-12
 Reference value :  1.62736e-12
 Reference value :  2.20511e-12
 Reference value :  3.05294e-12
 Reference value :  3.95940e-12
 Reference value :  5.17643e-12
 Reference value :  6.90641e-12
 Reference value :  1.00698e-11
 Reference value :  1.35892e-11
 Reference value :  2.04970e-11
 Reference value :  2.72060e-11
 Reference value :  3.62946e-11
 Reference value :  4.74416e-11
 Reference value :  6.32499e-11
 Reference value :  8.36850e-11
 Reference value :  1.00000e-10
 Reference value :  1.01339e-10
 Reference value :  1.04016e-10
 Reference value :  1.09370e-10
 Reference value :  1.20078e-10
 Reference value :  1.41495e-10
 Reference value :  1.84329e-10
 Reference value :  2.69997e-10
 Reference value :  4.21553e-10
 Reference value :  5.93817e-10
 Reference value :  8.68267e-10
 Reference value :  1.25471e-09
 Reference value :  1.64021e-09
 Reference value :  2.23746e-09
 Reference value :  2.86273e-09
 Reference value :  3.76015e-09
 Reference value :  4.56819e-09
 Reference value :  5.33708e-09
 Reference value :  6.17804e-09
 Reference value :  7.06946e-09
 Reference value :  8.19837e-09
 Reference value :  9.39843e-09
 Reference value :  1.05920e-08
 Reference value :  1.14328e-08
 Reference value :  1.22048e-08
 Reference value :  1.30504e-08
 Reference value :  1.39639e-08
 Reference value :  1.55855e-08
 Reference value :  1.76541e-08
 Reference value :  2.12831e-08
 Reference value :  2.46446e-08
 Reference value :  2.79227e-08
 Reference value :  3.10473e-08
 Reference value :  3.45846e-08
 Reference value :  3.81158e-08
 Reference value :  4.25037e-08
 Reference value :  4.89428e-08
 Reference value :  5.66301e-08
 Reference value :  6.98170e-08
 Reference value :  9.09963e-08
 Reference value :  1.28049e-07
 Reference value :  1.99071e-07
 Reference value :  2.50100e-07
 Reference value :  2.50110e-07
 Reference value :  2.50130e-07
 Reference value :  2.50170e-07
 Reference value :  2.50200e-07
 Reference value :  2.50201e-07
 Reference value :  2.50202e-07
 Reference value :  2.50204e-07
 Reference value :  2.50208e-07
 Reference value :  2.50218e-07
 Reference value :  2.50236e-07
 Reference value :  2.50272e-07
 Reference value :  2.50344e-07
 Reference value :  2.50442e-07
 Reference value :  2.50590e-07
 Reference value :  2.50768e-07
 Reference value :  2.51116e-07
 Reference value :  2.51468e-07
 Reference value :  2.51962e-07
 Reference value :  2.52480e-07
 Reference value :  2.53132e-07
 Reference value :  2.53954e-07
 Reference value :  2.54691e-07
 Reference value :  2.55501e-07
 Reference value :  2.56244e-07
 Reference value :  2.57086e-07
 Reference value :  2.57927e-07
 Reference value :  2.59154e-07
 Reference value :  2.61108e-07
 Reference value :  2.63028e-07
 Reference value :  2.66394e-07
 Reference value :  2.71050e-07
 Reference value :  2.80363e-07
 Reference value :  2.98989e-07
 Reference value :  3.36241e-07
 Reference value :  4.10744e-07
 Reference value :  5.00000e-07
 Reference value :  5.00010e-07
 Reference value :  5.00030e-07
 Reference value :  5.00070e-07
 Reference value :  5.00100e-07
 Reference value :  5.00104e-07
 Reference value :  5.00113e-07
 Reference value :  5.00130e-07
 Reference value :  5.00165e-07
 Reference value :  5.00235e-07
 Reference value :  5.00364e-07
 Reference value :  5.00578e-07
 Reference value :  5.01005e-07
 Reference value :  5.01504e-07
 Reference value :  5.02034e-07
 Reference value :  5.02545e-07
 Reference value :  5.03150e-07
 Reference value :  5.03767e-07
 Reference value :  5.04517e-07
 Reference value :  5.05330e-07
 Reference value :  5.06115e-07
 Reference value :  5.07274e-07
 Reference value :  5.08465e-07
 Reference value :  5.10185e-07
 Reference value :  5.12332e-07
 Reference value :  5.13883e-07
 Reference value :  5.15604e-07
 Reference value :  5.17412e-07
 Reference value :  5.19526e-07
 Reference value :  5.21867e-07
 Reference value :  5.24198e-07
 Reference value :  5.28681e-07
 Reference value :  5.34781e-07
 Reference value :  5.43276e-07
 Reference value :  5.60268e-07
 Reference value :  5.85607e-07
 Reference value :  6.36285e-07
 Reference value :  7.26032e-07
 Reference value :  7.50100e-07
 Reference value :  7.50110e-07
 Reference value :  7.50130e-07
 Reference value :  7.50170e-07
 Reference value :  7.50200e-07
 Reference value :  7.50201e-07
 Reference value :  7.50202e-07
 Reference value :  7.50206e-07
 Reference value :  7.50212e-07
 Reference value :  7.50225e-07
 Reference value :  7.50251e-07
 Reference value :  7.50303e-07
 Reference value :  7.50407e-07
 Reference value :  7.50615e-07
 Reference value :  7.50972e-07
 Reference value :  7.51347e-07
 Reference value :  7.51825e-07
 Reference value :  7.52356e-07
 Reference value :  7.53081e-07
 Reference value :  7.53921e-07
 Reference value :  7.54680e-07
 Reference value :  7.55561e-07
 Reference value :  7.56327e-07
 Reference value :  7.57129e-07
 Reference value :  7.58007e-07
 Reference value :  7.59005e-07
 Reference value :  7.60854e-07
 Reference value :  7.63367e-07
 Reference value :  7.66630e-07
 Reference value :  7.72914e-07
 Reference value :  7.85482e-07
 Reference value :  8.07299e-07
 Reference value :  8.50933e-07
 Reference value :  9.38201e-07
 Reference value :  1.00000e-06
 Reference value :  1.00001e-06
 Reference value :  1.00003e-06
 Reference value :  1.00007e-06
 Reference value :  1.00010e-06
 Reference value :  1.00010e-06
 Reference value :  1.00011e-06
 Reference value :  1.00013e-06
 Reference value :  1.00016e-06
 Reference value :  1.00023e-06
 Reference value :  1.00036e-06
 Reference value :  1.00058e-06
 Reference value :  1.00100e-06
 Reference value :  1.00150e-06
 Reference value :  1.00203e-06
 Reference value :  1.00253e-06
 Reference value :  1.00314e-06
 Reference value :  1.00370e-06
 Reference value :  1.00448e-06
 Reference value :  1.00522e-06
 Reference value :  1.00588e-06
 Reference value :  1.00673e-06
 Reference value :  1.00756e-06
 Reference value :  1.00837e-06
 Reference value :  1.00920e-06
 Reference value :  1.01029e-06
 Reference value :  1.01170e-06
 Reference value :  1.01391e-06
 Reference value :  1.01598e-06
 Reference value :  1.01779e-06
 Reference value :  1.01928e-06
 Reference value :  1.02036e-06
 Reference value :  1.02151e-06
 Reference value :  1.02257e-06
 Reference value :  1.02371e-06
 Reference value :  1.02497e-06
 Reference value :  1.02689e-06
 Reference value :  1.02870e-06
 Reference value :  1.03129e-06
 Reference value :  1.03417e-06
 Reference value :  1.03712e-06
 Reference value :  1.03988e-06
 Reference value :  1.04185e-06
 Reference value :  1.04408e-06
 Reference value :  1.04783e-06
 Reference value :  1.05160e-06
 Reference value :  1.05465e-06
 Reference value :  1.05790e-06
 Reference value :  1.06235e-06
 Reference value :  1.06779e-06
 Reference value :  1.07495e-06
 Reference value :  1.08216e-06
 Reference value :  1.09023e-06
 Reference value :  1.09820e-06
 Reference value :  1.11415e-06
 Reference value :  1.13613e-06
 Reference value :  1.17432e-06
 Reference value :  1.25010e-06
 Reference value :  1.25011e-06
 Reference value :  1.25013e-06
 Reference value :  1.25017e-06
 Reference value :  1.25020e-06
 Reference value :  1.25020e-06
 Reference value :  1.25020e-06
 Reference value :  1.25021e-06
 Reference value :  1.25021e-06
 Reference value :  1.25023e-06
 Reference value :  1.25025e-06
 Reference value :  1.25031e-06
 Reference value :  1.25041e-06
 Reference value :  1.25062e-06
 Reference value :  1.25098e-06
 Reference value :  1.25135e-06
 Reference value :  1.25182e-06
 Reference value :  1.25236e-06
 Reference value :  1.25304e-06
 Reference value :  1.25389e-06
 Reference value :  1.25462e-06
 Reference value :  1.25544e-06
 Reference value :  1.25622e-06
 Reference value :  1.25703e-06
 Reference value :  1.25828e-06
 Reference value :  1.25955e-06
 Reference value :  1.26154e-06
 Reference value :  1.26421e-06
 Reference value :  1.26784e-06
 Reference value :  1.27510e-06
 Reference value :  1.28858e-06
 Reference value :  1.31183e-06
 Reference value :  1.35769e-06
 Reference value :  1.44942e-06
 Reference value :  1.50000e-06
 Reference value :  1.50001e-06
 Reference value :  1.50003e-06
 Reference value :  1.50007e-06
 Reference value :  1.50010e-06
 Reference value :  1.50010e-06
 Reference value :  1.50011e-06
 Reference value :  1.50013e-06
 Reference value :  1.50016e-06
 Reference value :  1.50023e-06
 Reference value :  1.50036e-06
 Reference value :  1.50056e-06
 Reference value :  1.50096e-06
 Reference value :  1.50146e-06
 Reference value :  1.50198e-06
 Reference value :  1.50245e-06
 Reference value :  1.50303e-06
 Reference value :  1.50356e-06
 Reference value :  1.50423e-06
 Reference value :  1.50495e-06
 Reference value :  1.50576e-06
 Reference value :  1.50682e-06
 Reference value :  1.50790e-06
 Reference value :  1.50936e-06
 Reference value :  1.51039e-06
 Reference value :  1.51155e-06
 Reference value :  1.51277e-06
 Reference value :  1.51424e-06
 Reference value :  1.51573e-06
 Reference value :  1.51740e-06
 Reference value :  1.52071e-06
 Reference value :  1.52524e-06
 Reference value :  1.53429e-06
 Reference value :  1.55121e-06
 Reference value :  1.58135e-06
 Reference value :  1.64163e-06
 Reference value :  1.75010e-06
 Reference value :  1.75011e-06
 Reference value :  1.75013e-06
 Reference value :  1.75017e-06
 Reference value :  1.75020e-06
 Reference value :  1.75020e-06
 Reference value :  1.75020e-06
 Reference value :  1.75021e-06
 Reference value :  1.75021e-06
 Reference value :  1.75023e-06
 Reference value :  1.75025e-06
 Reference value :  1.75030e-06
 Reference value :  1.75041e-06
 Reference value :  1.75062e-06
 Reference value :  1.75097e-06
 Reference value :  1.75134e-06
 Reference value :  1.75181e-06
 Reference value :  1.75234e-06
 Reference value :  1.75304e-06
 Reference value :  1.75386e-06
 Reference value :  1.75464e-06
 Reference value :  1.75552e-06
 Reference value :  1.75637e-06
 Reference value :  1.75716e-06
 Reference value :  1.75808e-06
 Reference value :  1.75909e-06
 Reference value :  1.76032e-06
 Reference value :  1.76153e-06
 Reference value :  1.76339e-06
 Reference value :  1.76545e-06
 Reference value :  1.76860e-06
 Reference value :  1.77319e-06
 Reference value :  1.78237e-06
 Reference value :  1.80073e-06
 Reference value :  1.83577e-06
 Reference value :  1.90584e-06
 Reference value :  2.00000e-06
 Reference value :  2.00001e-06
 Reference value :  2.00003e-06
 Reference value :  2.00007e-06
 Reference value :  2.00010e-06
 Reference value :  2.00010e-06
 Reference value :  2.00011e-06
 Reference value :  2.00013e-06
 Reference value :  2.00016e-06
 Reference value :  2.00023e-06
 Reference value :  2.00036e-06
 Reference value :  2.00056e-06
 Reference value :  2.00096e-06
 Reference value :  2.00145e-06
 Reference value :  2.00198e-06
 Reference value :  2.00248e-06
 Reference value :  2.00302e-06
 Reference value :  2.00358e-06
 Reference value :  2.00432e-06
 Reference value :  2.00499e-06
 Reference value :  2.00563e-06
 Reference value :  2.00631e-06
 Reference value :  2.00699e-06
 Reference value :  2.00773e-06
 Reference value :  2.00846e-06
 Reference value :  2.00931e-06
 Reference value :  2.01033e-06
 Reference value :  2.01181e-06
 Reference value :  2.01402e-06
 Reference value :  2.01545e-06
 Reference value :  2.01705e-06
 Reference value :  2.01856e-06
 Reference value :  2.01972e-06
 Reference value :  2.02082e-06
 Reference value :  2.02199e-06
 Reference value :  2.02322e-06
 Reference value :  2.02470e-06
 Reference value :  2.02608e-06
 Reference value :  2.02847e-06
 Reference value :  2.03070e-06
 Reference value :  2.03518e-06
 Reference value :  2.04338e-06
 Reference value :  2.05601e-06
 Reference value :  2.08127e-06
 Reference value :  2.11950e-06
 Reference value :  2.17367e-06
 Reference value :  2.24311e-06
 Reference value :  2.25010e-06
 Reference value :  2.25011e-06
 Reference value :  2.25013e-06
 Reference value :  2.25017e-06
 Reference value :  2.25020e-06
 Reference value :  2.25020e-06
 Reference value :  2.25020e-06
 Reference value :  2.25021e-06
 Reference value :  2.25021e-06
 Reference value :  2.25023e-06
 Reference value :  2.25025e-06
 Reference value :  2.25031e-06
 Reference value :  2.25041e-06
 Reference value :  2.25062e-06
 Reference value :  2.25098e-06
 Reference value :  2.25135e-06
 Reference value :  2.25182e-06
 Reference value :  2.25236e-06
 Reference value :  2.25305e-06
 Reference value :  2.25388e-06
 Reference value :  2.25465e-06
 Reference value :  2.25550e-06
 Reference value :  2.25638e-06
 Reference value :  2.25721e-06
 Reference value :  2.25853e-06
 Reference value :  2.25988e-06
 Reference value :  2.26192e-06
 Reference value :  2.26470e-06
 Reference value :  2.26880e-06
 Reference value :  2.27699e-06
 Reference value :  2.29063e-06
 Reference value :  2.31546e-06
 Reference value :  2.36079e-06
 Reference value :  2.43016e-06
 Reference value :  2.50000e-06
 Reference value :  2.50001e-06
 Reference value :  2.50003e-06
 Reference value :  2.50007e-06
 Reference value :  2.50010e-06
 Reference value :  2.50010e-06
 Reference value :  2.50011e-06
 Reference value :  2.50013e-06
 Reference value :  2.50016e-06
 Reference value :  2.50023e-06
 Reference value :  2.50036e-06
 Reference value :  2.50056e-06
 Reference value :  2.50096e-06
 Reference value :  2.50145e-06
 Reference value :  2.50198e-06
 Reference value :  2.50245e-06
 Reference value :  2.50303e-06
 Reference value :  2.50356e-06
 Reference value :  2.50423e-06
 Reference value :  2.50495e-06
 Reference value :  2.50577e-06
 Reference value :  2.50683e-06
 Reference value :  2.50792e-06
 Reference value :  2.50936e-06
 Reference value :  2.51038e-06
 Reference value :  2.51153e-06
 Reference value :  2.51269e-06
 Reference value :  2.51409e-06
 Reference value :  2.51561e-06
 Reference value :  2.51716e-06
 Reference value :  2.52025e-06
 Reference value :  2.52545e-06
 Reference value :  2.53486e-06
 Reference value :  2.55338e-06
 Reference value :  2.58710e-06
 Reference value :  2.65454e-06
 Reference value :  2.75010e-06
 Reference value :  2.75011e-06
 Reference value :  2.75013e-06
 Reference value :  2.75017e-06
 Reference value :  2.75020e-06
 Reference value :  2.75020e-06
 Reference value :  2.75020e-06
 Reference value :  2.75021e-06
 Reference value :  2.75021e-06
 Reference value :  2.75023e-06
 Reference value :  2.75025e-06
 Reference value :  2.75030e-06
 Reference value :  2.75041e-06
 Reference value :  2.75062e-06
 Reference value :  2.75097e-06
 Reference value :  2.75134e-06
 Reference value :  2.75181e-06
 Reference value :  2.75234e-06
 Reference value :  2.75304e-06
 Reference value :  2.75386e-06
 Reference value :  2.75464e-06
 Reference value :  2.75552e-06
 Reference value :  2.75637e-06
 Reference value :  2.75716e-06
 Reference value :  2.75808e-06
 Reference value :  2.75911e-06
 Reference value :  2.76037e-06
 Reference value :  2.76157e-06
 Reference value :  2.76344e-06
 Reference value :  2.76552e-06
 Reference value :  2.76868e-06
 Reference value :  2.77339e-06
 Reference value :  2.78282e-06
 Reference value :  2.80166e-06
 Reference value :  2.83789e-06
 Reference value :  2.91036e-06
 Reference value :  3.00000e-06
 Reference value :  3.00001e-06
 Reference value :  3.00003e-06
 Reference value :  3.00007e-06
 Reference value :  3.00010e-06
 Reference value :  3.00010e-06
 Reference value :  3.00011e-06
 Reference value :  3.00013e-06
 Reference value :  3.00016e-06
 Reference value :  3.00023e-06
 Reference value :  3.00036e-06
 Reference value :  3.00056e-06
 Reference value :  3.00096e-06
 Reference value :  3.00145e-06
 Reference value :  3.00198e-06
 Reference value :  3.00248e-06
 Reference value :  3.00302e-06
 Reference value :  3.00358e-06
 Reference value :  3.00432e-06
 Reference value :  3.00499e-06
 Reference value :  3.00564e-06
 Reference value :  3.00631e-06
 Reference value :  3.00700e-06
 Reference value :  3.00774e-06
 Reference value :  3.00844e-06
 Reference value :  3.00933e-06
 Reference value :  3.01032e-06
 Reference value :  3.01187e-06
 Reference value :  3.01337e-06
 Reference value :  3.01496e-06
 Reference value :  3.01646e-06
 Reference value :  3.01792e-06
 Reference value :  3.01901e-06
 Reference value :  3.02004e-06
 Reference value :  3.02121e-06
 Reference value :  3.02227e-06
 Reference value :  3.02337e-06
 Reference value :  3.02465e-06
 Reference value :  3.02637e-06
 Reference value :  3.02823e-06
 Reference value :  3.03140e-06
 Reference value :  3.03670e-06
 Reference value :  3.04484e-06
 Reference value :  3.05949e-06
 Reference value :  3.08233e-06
 Reference value :  3.10955e-06
 Reference value :  3.14181e-06
 Reference value :  3.17595e-06
 Reference value :  3.20940e-06
 Reference value :  3.23973e-06
 Reference value :  3.25010e-06
 Reference value :  3.25011e-06
 Reference value :  3.25013e-06
 Reference value :  3.25017e-06
 Reference value :  3.25020e-06
 Reference value :  3.25020e-06
 Reference value :  3.25020e-06
 Reference value :  3.25021e-06
 Reference value :  3.25021e-06
 Reference value :  3.25023e-06
 Reference value :  3.25025e-06
 Reference value :  3.25030e-06
 Reference value :  3.25041e-06
 Reference value :  3.25062e-06
 Reference value :  3.25097e-06
 Reference value :  3.25134e-06
 Reference value :  3.25181e-06
 Reference value :  3.25234e-06
 Reference value :  3.25304e-06
 Reference value :  3.25386e-06
 Reference value :  3.25465e-06
 Reference value :  3.25552e-06
 Reference value :  3.25637e-06
 Reference value :  3.25723e-06
 Reference value :  3.25868e-06
 Reference value :  3.26003e-06
 Reference value :  3.26215e-06
 Reference value :  3.26494e-06
 Reference value :  3.26939e-06
 Reference value :  3.27829e-06
 Reference value :  3.29227e-06
 Reference value :  3.31890e-06
 Reference value :  3.36546e-06
 Reference value :  3.44809e-06
 Reference value :  3.50000e-06
 Reference value :  3.50001e-06
 Reference value :  3.50003e-06
 Reference value :  3.50007e-06
 Reference value :  3.50010e-06
 Reference value :  3.50010e-06
 Reference value :  3.50011e-06
 Reference value :  3.50013e-06
 Reference value :  3.50016e-06
 Reference value :  3.50023e-06
 Reference value :  3.50036e-06
 Reference value :  3.50056e-06
 Reference value :  3.50096e-06
 Reference value :  3.50145e-06
 Reference value :  3.50198e-06
 Reference value :  3.50245e-06
 Reference value :  3.50303e-06
 Reference value :  3.50356e-06
 Reference value :  3.50423e-06
 Reference value :  3.50495e-06
 Reference value :  3.50570e-06
 Reference value :  3.50678e-06
 Reference value :  3.50778e-06
 Reference value :  3.50927e-06
 Reference value :  3.51027e-06
 Reference value :  3.51142e-06
 Reference value :  3.51246e-06
 Reference value :  3.51370e-06
 Reference value :  3.51498e-06
 Reference value :  3.51639e-06
 Reference value :  3.51921e-06
 Reference value :  3.52471e-06
 Reference value :  3.53410e-06
 Reference value :  3.55289e-06
 Reference value :  3.59046e-06
 Reference value :  3.66561e-06
 Reference value :  3.75010e-06
 Reference value :  3.75011e-06
 Reference value :  3.75013e-06
 Reference value :  3.75017e-06
 Reference value :  3.75020e-06
 Reference value :  3.75020e-06
 Reference value :  3.75020e-06
 Reference value :  3.75021e-06
 Reference value :  3.75021e-06
 Reference value :  3.75023e-06
 Reference value :  3.75025e-06
 Reference value :  3.75030e-06
 Reference value :  3.75041e-06
 Reference value :  3.75062e-06
 Reference value :  3.75097e-06
 Reference value :  3.75134e-06
 Reference value :  3.75181e-06
 Reference value :  3.75234e-06
 Reference value :  3.75304e-06
 Reference value :  3.75386e-06
 Reference value :  3.75464e-06
 Reference value :  3.75552e-06
 Reference value :  3.75637e-06
 Reference value :  3.75716e-06
 Reference value :  3.75808e-06
 Reference value :  3.75909e-06
 Reference value :  3.76035e-06
 Reference value :  3.76155e-06
 Reference value :  3.76342e-06
 Reference value :  3.76549e-06
 Reference value :  3.76866e-06
 Reference value :  3.77333e-06
 Reference value :  3.78266e-06
 Reference value :  3.80133e-06
 Reference value :  3.83715e-06
 Reference value :  3.90880e-06
 Reference value :  4.00000e-06
 Reference value :  4.00001e-06
 Reference value :  4.00003e-06
 Reference value :  4.00007e-06
 Reference value :  4.00010e-06
 Reference value :  4.00010e-06
 Reference value :  4.00011e-06
 Reference value :  4.00013e-06
 Reference value :  4.00016e-06
 Reference value :  4.00023e-06
 Reference value :  4.00036e-06
 Reference value :  4.00056e-06
 Reference value :  4.00096e-06
 Reference value :  4.00145e-06
 Reference value :  4.00198e-06
 Reference value :  4.00248e-06
 Reference value :  4.00302e-06
 Reference value :  4.00358e-06
 Reference value :  4.00432e-06
 Reference value :  4.00499e-06
 Reference value :  4.00563e-06
 Reference value :  4.00631e-06
 Reference value :  4.00700e-06
 Reference value :  4.00774e-06
 Reference value :  4.00842e-06
 Reference value :  4.00937e-06
 Reference value :  4.01033e-06
 Reference value :  4.01196e-06
 Reference value :  4.01299e-06
 Reference value :  4.01422e-06
 Reference value :  4.01538e-06
 Reference value :  4.01681e-06
 Reference value :  4.01830e-06
 Reference value :  4.01945e-06
 Reference value :  4.02068e-06
 Reference value :  4.02191e-06
 Reference value :  4.02321e-06
 Reference value :  4.02470e-06
 Reference value :  4.02624e-06
 Reference value :  4.02851e-06
 Reference value :  4.03123e-06
 Reference value :  4.03668e-06
 Reference value :  4.04746e-06
 Reference value :  4.06042e-06
 Reference value :  4.07165e-06
 Reference value :  4.08187e-06
 Reference value :  4.09183e-06
 Reference value :  4.09902e-06
 Reference value :  4.10779e-06
 Reference value :  4.11706e-06
 Reference value :  4.12818e-06
 Reference value :  4.15042e-06
 Reference value :  4.18938e-06
 Reference value :  4.24286e-06
 Reference value :  4.25010e-06
 Reference value :  4.25011e-06
 Reference value :  4.25013e-06
 Reference value :  4.25017e-06
 Reference value :  4.25020e-06
 Reference value :  4.25020e-06
 Reference value :  4.25020e-06
 Reference value :  4.25021e-06
 Reference value :  4.25021e-06
 Reference value :  4.25023e-06
 Reference value :  4.25025e-06
 Reference value :  4.25030e-06
 Reference value :  4.25041e-06
 Reference value :  4.25062e-06
 Reference value :  4.25097e-06
 Reference value :  4.25134e-06
 Reference value :  4.25181e-06
 Reference value :  4.25234e-06
 Reference value :  4.25304e-06
 Reference value :  4.25386e-06
 Reference value :  4.25464e-06
 Reference value :  4.25551e-06
 Reference value :  4.25636e-06
 Reference value :  4.25722e-06
 Reference value :  4.25867e-06
 Reference value :  4.26000e-06
 Reference value :  4.26215e-06
 Reference value :  4.26494e-06
 Reference value :  4.26927e-06
 Reference value :  4.27793e-06
 Reference value :  4.29178e-06
 Reference value :  4.31781e-06
 Reference value :  4.36393e-06
 Reference value :  4.45060e-06
 Reference value :  4.50000e-06
 Reference value :  4.50001e-06
 Reference value :  4.50003e-06
 Reference value :  4.50007e-06
 Reference value :  4.50010e-06
 Reference value :  4.50010e-06
 Reference value :  4.50011e-06
 Reference value :  4.50013e-06
 Reference value :  4.50016e-06
 Reference value :  4.50023e-06
 Reference value :  4.50036e-06
 Reference value :  4.50056e-06
 Reference value :  4.50096e-06
 Reference value :  4.50145e-06
 Reference value :  4.50198e-06
 Reference value :  4.50245e-06
 Reference value :  4.50302e-06
 Reference value :  4.50356e-06
 Reference value :  4.50423e-06
 Reference value :  4.50494e-06
 Reference value :  4.50570e-06
 Reference value :  4.50678e-06
 Reference value :  4.50778e-06
 Reference value :  4.50916e-06
 Reference value :  4.51014e-06
 Reference value :  4.51124e-06
 Reference value :  4.51220e-06
 Reference value :  4.51336e-06
 Reference value :  4.51451e-06
 Reference value :  4.51587e-06
 Reference value :  4.51858e-06
 Reference value :  4.52396e-06
 Reference value :  4.53350e-06
 Reference value :  4.55257e-06
 Reference value :  4.59071e-06
 Reference value :  4.66699e-06
 Reference value :  4.75010e-06
 Reference value :  4.75011e-06
 Reference value :  4.75013e-06
 Reference value :  4.75017e-06
 Reference value :  4.75020e-06
 Reference value :  4.75020e-06
 Reference value :  4.75020e-06
 Reference value :  4.75021e-06
 Reference value :  4.75021e-06
 Reference value :  4.75023e-06
 Reference value :  4.75025e-06
 Reference value :  4.75030e-06
 Reference value :  4.75041e-06
 Reference value :  4.75062e-06
 Reference value :  4.75097e-06
 Reference value :  4.75134e-06
 Reference value :  4.75181e-06
 Reference value :  4.75234e-06
 Reference value :  4.75304e-06
 Reference value :  4.75386e-06
 Reference value :  4.75463e-06
 Reference value :  4.75551e-06
 Reference value :  4.75636e-06
 Reference value :  4.75715e-06
 Reference value :  4.75806e-06
 Reference value :  4.75908e-06
 Reference value :  4.76032e-06
 Reference value :  4.76153e-06
 Reference value :  4.76339e-06
 Reference value :  4.76545e-06
 Reference value :  4.76860e-06
 Reference value :  4.77321e-06
 Reference value :  4.78243e-06
 Reference value :  4.80086e-06
 Reference value :  4.83607e-06
 Reference value :  4.90650e-06
 Reference value :  5.00000e-06
 Reference value :  5.00001e-06
 Reference value :  5.00003e-06
 Reference value :  5.00007e-06
 Reference value :  5.00010e-06
 Reference value :  5.00010e-06
 Reference value :  5.00011e-06
 Reference value :  5.00013e-06
 Reference value :  5.00016e-06
 Reference value :  5.00023e-06
 Reference value :  5.00036e-06
 Reference value :  5.00056e-06
 Reference value :  5.00096e-06
 Reference value :  5.00145e-06
 Reference value :  5.00198e-06
 Reference value :  5.00247e-06
 Reference value :  5.00302e-06
 Reference value :  5.00358e-06
 Reference value :  5.00432e-06
 Reference value :  5.00499e-06
 Reference value :  5.00564e-06
 Reference value :  5.00632e-06
 Reference value :  5.00701e-06
 Reference value :  5.00768e-06
 Reference value :  5.00838e-06
 Reference value :  5.00931e-06
 Reference value :  5.01026e-06
 Reference value :  5.01192e-06
 Reference value :  5.01301e-06
 Reference value :  5.01423e-06
 Reference value :  5.01541e-06
 Reference value :  5.01687e-06
 Reference value :  5.01834e-06
 Reference value :  5.01944e-06
 Reference value :  5.02064e-06
 Reference value :  5.02182e-06
 Reference value :  5.02307e-06
 Reference value :  5.02451e-06
 Reference value :  5.02590e-06
 Reference value :  5.02830e-06
 Reference value :  5.03051e-06
 Reference value :  5.03493e-06
 Reference value :  5.04261e-06
 Reference value :  5.05310e-06
 Reference value :  5.06556e-06
 Reference value :  5.07834e-06
 Reference value :  5.09254e-06
 Reference value :  5.11082e-06
 Reference value :  5.13175e-06
 Reference value :  5.15109e-06
 Reference value :  5.16695e-06
 Reference value :  5.18486e-06
 Reference value :  5.22068e-06
 Reference value :  5.25010e-06
 Reference value :  5.25011e-06
 Reference value :  5.25013e-06
 Reference value :  5.25017e-06
 Reference value :  5.25020e-06
 Reference value :  5.25020e-06
 Reference value :  5.25020e-06
 Reference value :  5.25021e-06
 Reference value :  5.25021e-06
 Reference value :  5.25023e-06
 Reference value :  5.25025e-06
 Reference value :  5.25031e-06
 Reference value :  5.25041e-06
 Reference value :  5.25062e-06
 Reference value :  5.25098e-06
 Reference value :  5.25135e-06
 Reference value :  5.25182e-06
 Reference value :  5.25236e-06
 Reference value :  5.25307e-06
 Reference value :  5.25389e-06
 Reference value :  5.25464e-06
 Reference value :  5.25549e-06
 Reference value :  5.25638e-06
 Reference value :  5.25720e-06
 Reference value :  5.25850e-06
 Reference value :  5.25983e-06
 Reference value :  5.26186e-06
 Reference value :  5.26463e-06
 Reference value :  5.26865e-06
 Reference value :  5.27670e-06
 Reference value :  5.29001e-06
 Reference value :  5.31411e-06
 Reference value :  5.35794e-06
 Reference value :  5.44199e-06
 Reference value :  5.50000e-06
 Reference value :  5.50001e-06
 Reference value :  5.50003e-06
 Reference value :  5.50007e-06
 Reference value :  5.50010e-06
 Reference value :  5.50010e-06
 Reference value :  5.50011e-06
 Reference value :  5.50013e-06
 Reference value :  5.50016e-06
 Reference value :  5.50023e-06
 Reference value :  5.50036e-06
 Reference value :  5.50056e-06
 Reference value :  5.50096e-06
 Reference value :  5.50146e-06
 Reference value :  5.50198e-06
 Reference value :  5.50245e-06
 Reference value :  5.50303e-06
 Reference value :  5.50356e-06
 Reference value :  5.50423e-06
 Reference value :  5.50495e-06
 Reference value :  5.50577e-06
 Reference value :  5.50683e-06
 Reference value :  5.50791e-06
 Reference value :  5.50924e-06
 Reference value :  5.51025e-06
 Reference value :  5.51136e-06
 Reference value :  5.51236e-06
 Reference value :  5.51351e-06
 Reference value :  5.51472e-06
 Reference value :  5.51612e-06
 Reference value :  5.51891e-06
 Reference value :  5.52331e-06
 Reference value :  5.53211e-06
 Reference value :  5.54972e-06
 Reference value :  5.58367e-06
 Reference value :  5.65156e-06
 Reference value :  5.75010e-06
 Reference value :  5.75011e-06
 Reference value :  5.75013e-06
 Reference value :  5.75017e-06
 Reference value :  5.75020e-06
 Reference value :  5.75020e-06
 Reference value :  5.75020e-06
 Reference value :  5.75021e-06
 Reference value :  5.75021e-06
 Reference value :  5.75023e-06
 Reference value :  5.75025e-06
 Reference value :  5.75030e-06
 Reference value :  5.75041e-06
 Reference value :  5.75062e-06
 Reference value :  5.75097e-06
 Reference value :  5.75134e-06
 Reference value :  5.75181e-06
 Reference value :  5.75234e-06
 Reference value :  5.75304e-06
 Reference value :  5.75386e-06
 Reference value :  5.75464e-06
 Reference value :  5.75552e-06
 Reference value :  5.75637e-06
 Reference value :  5.75716e-06
 Reference value :  5.75807e-06
 Reference value :  5.75909e-06
 Reference value :  5.76033e-06
 Reference value :  5.76154e-06
 Reference value :  5.76339e-06
 Reference value :  5.76546e-06
 Reference value :  5.76861e-06
 Reference value :  5.77323e-06
 Reference value :  5.78247e-06
 Reference value :  5.80094e-06
 Reference value :  5.83628e-06
 Reference value :  5.90694e-06
 Reference value :  6.00000e-06
 Reference value :  6.00001e-06
 Reference value :  6.00003e-06
 Reference value :  6.00007e-06
 Reference value :  6.00010e-06
 Reference value :  6.00010e-06
 Reference value :  6.00011e-06
 Reference value :  6.00013e-06
 Reference value :  6.00016e-06
 Reference value :  6.00023e-06
 Reference value :  6.00036e-06
 Reference value :  6.00056e-06
 Reference value :  6.00096e-06
 Reference value :  6.00145e-06
 Reference value :  6.00198e-06
 Reference value :  6.00248e-06
 Reference value :  6.00302e-06
 Reference value :  6.00358e-06
 Reference value :  6.00432e-06
 Reference value :  6.00499e-06
 Reference value :  6.00564e-06
 Reference value :  6.00632e-06
 Reference value :  6.00701e-06
 Reference value :  6.00776e-06
 Reference value :  6.00846e-06
 Reference value :  6.00946e-06
 Reference value :  6.01050e-06
 Reference value :  6.01197e-06
 Reference value :  6.01302e-06
 Reference value :  6.01419e-06
 Reference value :  6.01539e-06
 Reference value :  6.01669e-06
 Reference value :  6.01803e-06
 Reference value :  6.01901e-06
 Reference value :  6.01994e-06
 Reference value :  6.02104e-06
 Reference value :  6.02205e-06
 Reference value :  6.02312e-06
 Reference value :  6.02447e-06
 Reference value :  6.02586e-06
 Reference value :  6.02802e-06
 Reference value :  6.03076e-06
 Reference value :  6.03625e-06
 Reference value :  6.04263e-06
 Reference value :  6.05021e-06
 Reference value :  6.05957e-06
 Reference value :  6.07242e-06
 Reference value :  6.09370e-06
 Reference value :  6.13625e-06
 Reference value :  6.20279e-06
 Reference value :  6.25010e-06
 Reference value :  6.25011e-06
 Reference value :  6.25013e-06
 Reference value :  6.25017e-06
 Reference value :  6.25020e-06
 Reference value :  6.25020e-06
 Reference value :  6.25020e-06
 Reference value :  6.25021e-06
 Reference value :  6.25021e-06
 Reference value :  6.25023e-06
 Reference value :  6.25025e-06
 Reference value :  6.25030e-06
 Reference value :  6.25041e-06
 Reference value :  6.25062e-06
 Reference value :  6.25097e-06
 Reference value :  6.25134e-06
 Reference value :  6.25181e-06
 Reference value :  6.25234e-06
 Reference value :  6.25304e-06
 Reference value :  6.25386e-06
 Reference value :  6.25465e-06
 Reference value :  6.25551e-06
 Reference value :  6.25637e-06
 Reference value :  6.25723e-06
 Reference value :  6.25868e-06
 Reference value :  6.26002e-06
 Reference value :  6.26214e-06
 Reference value :  6.26493e-06
 Reference value :  6.26936e-06
 Reference value :  6.27822e-06
 Reference value :  6.29200e-06
 Reference value :  6.31826e-06
 Reference value :  6.36386e-06
 Reference value :  6.44447e-06
 Reference value :  6.50000e-06
 Reference value :  6.50001e-06
 Reference value :  6.50003e-06
 Reference value :  6.50007e-06
 Reference value :  6.50010e-06
 Reference value :  6.50010e-06
 Reference value :  6.50011e-06
 Reference value :  6.50013e-06
 Reference value :  6.50016e-06
 Reference value :  6.50023e-06
 Reference value :  6.50036e-06
 Reference value :  6.50056e-06
 Reference value :  6.50096e-06
 Reference value :  6.50145e-06
 Reference value :  6.50198e-06
 Reference value :  6.50245e-06
 Reference value :  6.50303e-06
 Reference value :  6.50356e-06
 Reference value :  6.50423e-06
 Reference value :  6.50495e-06
 Reference value :  6.50570e-06
 Reference value :  6.50678e-06
 Reference value :  6.50778e-06
 Reference value :  6.50929e-06
 Reference value :  6.51029e-06
 Reference value :  6.51143e-06
 Reference value :  6.51245e-06
 Reference value :  6.51363e-06
 Reference value :  6.51488e-06
 Reference value :  6.51632e-06
 Reference value :  6.51921e-06
 Reference value :  6.52354e-06
 Reference value :  6.53221e-06
 Reference value :  6.54954e-06
 Reference value :  6.58269e-06
 Reference value :  6.64898e-06
 Reference value :  6.75010e-06
 Reference value :  6.75011e-06
 Reference value :  6.75013e-06
 Reference value :  6.75017e-06
 Reference value :  6.75020e-06
 Reference value :  6.75020e-06
 Reference value :  6.75020e-06
 Reference value :  6.75021e-06
 Reference value :  6.75021e-06
 Reference value :  6.75023e-06
 Reference value :  6.75025e-06
 Reference value :  6.75030e-06
 Reference value :  6.75041e-06
 Reference value :  6.75062e-06
 Reference value :  6.75097e-06
 Reference value :  6.75134e-06
 Reference value :  6.75181e-06
 Reference value :  6.75234e-06
 Reference value :  6.75304e-06
 Reference value :  6.75386e-06
 Reference value :  6.75464e-06
 Reference value :  6.75552e-06
 Reference value :  6.75637e-06
 Reference value :  6.75715e-06
 Reference value :  6.75807e-06
 Reference value :  6.75908e-06
 Reference value :  6.76033e-06
 Reference value :  6.76153e-06
 Reference value :  6.76339e-06
 Reference value :  6.76546e-06
 Reference value :  6.76861e-06
 Reference value :  6.77323e-06
 Reference value :  6.78246e-06
 Reference value :  6.80092e-06
 Reference value :  6.83623e-06
 Reference value :  6.90687e-06
 Reference value :  7.00000e-06
 Reference value :  7.00001e-06
 Reference value :  7.00003e-06
 Reference value :  7.00007e-06
 Reference value :  7.00010e-06
 Reference value :  7.00010e-06
 Reference value :  7.00011e-06
 Reference value :  7.00013e-06
 Reference value :  7.00016e-06
 Reference value :  7.00023e-06
 Reference value :  7.00036e-06
 Reference value :  7.00056e-06
 Reference value :  7.00096e-06
 Reference value :  7.00145e-06
 Reference value :  7.00198e-06
 Reference value :  7.00248e-06
 Reference value :  7.00302e-06
 Reference value :  7.00358e-06
 Reference value :  7.00432e-06
 Reference value :  7.00499e-06
 Reference value :  7.00563e-06
 Reference value :  7.00631e-06
 Reference value :  7.00700e-06
 Reference value :  7.00775e-06
 Reference value :  7.00842e-06
 Reference value :  7.00937e-06
 Reference value :  7.01036e-06
 Reference value :  7.01186e-06
 Reference value :  7.01301e-06
 Reference value :  7.01427e-06
 Reference value :  7.01553e-06
 Reference value :  7.01694e-06
 Reference value :  7.01823e-06
 Reference value :  7.01929e-06
 Reference value :  7.02032e-06
 Reference value :  7.02156e-06
 Reference value :  7.02266e-06
 Reference value :  7.02380e-06
 Reference value :  7.02513e-06
 Reference value :  7.02699e-06
 Reference value :  7.02885e-06
 Reference value :  7.03227e-06
 Reference value :  7.03739e-06
 Reference value :  7.04449e-06
 Reference value :  7.05169e-06
 Reference value :  7.06504e-06
 Reference value :  7.09089e-06
 Reference value :  7.13462e-06
 Reference value :  7.21920e-06
 Reference value :  7.25010e-06
 Reference value :  7.25011e-06
 Reference value :  7.25013e-06
 Reference value :  7.25017e-06
 Reference value :  7.25020e-06
 Reference value :  7.25020e-06
 Reference value :  7.25020e-06
 Reference value :  7.25021e-06
 Reference value :  7.25021e-06
 Reference value :  7.25023e-06
 Reference value :  7.25025e-06
 Reference value :  7.25031e-06
 Reference value :  7.25041e-06
 Reference value :  7.25062e-06
 Reference value :  7.25098e-06
 Reference value :  7.25135e-06
 Reference value :  7.25183e-06
 Reference value :  7.25236e-06
 Reference value :  7.25306e-06
 Reference value :  7.25389e-06
 Reference value :  7.25461e-06
 Reference value :  7.25544e-06
 Reference value :  7.25623e-06
 Reference value :  7.25705e-06
 Reference value :  7.25829e-06
 Reference value :  7.25956e-06
 Reference value :  7.26156e-06
 Reference value :  7.26423e-06
 Reference value :  7.26788e-06
 Reference value :  7.27519e-06
 Reference value :  7.28826e-06
 Reference value :  7.31096e-06
 Reference value :  7.35461e-06
 Reference value :  7.44191e-06
 Reference value :  7.50000e-06
 Reference value :  7.50001e-06
 Reference value :  7.50003e-06
 Reference value :  7.50007e-06
 Reference value :  7.50010e-06
 Reference value :  7.50010e-06
 Reference value :  7.50011e-06
 Reference value :  7.50013e-06
 Reference value :  7.50016e-06
 Reference value :  7.50023e-06
 Reference value :  7.50036e-06
 Reference value :  7.50056e-06
 Reference value :  7.50096e-06
 Reference value :  7.50145e-06
 Reference value :  7.50197e-06
 Reference value :  7.50244e-06
 Reference value :  7.50300e-06
 Reference value :  7.50354e-06
 Reference value :  7.50421e-06
 Reference value :  7.50493e-06
 Reference value :  7.50573e-06
 Reference value :  7.50679e-06
 Reference value :  7.50786e-06
 Reference value :  7.50940e-06
 Reference value :  7.51044e-06
 Reference value :  7.51162e-06
 Reference value :  7.51260e-06
 Reference value :  7.51380e-06
 Reference value :  7.51500e-06
 Reference value :  7.51641e-06
 Reference value :  7.51921e-06
 Reference value :  7.52403e-06
 Reference value :  7.53348e-06
 Reference value :  7.55226e-06
 Reference value :  7.58905e-06
 Reference value :  7.66263e-06
 Reference value :  7.75010e-06
 Reference value :  7.75011e-06
 Reference value :  7.75013e-06
 Reference value :  7.75017e-06
 Reference value :  7.75020e-06
 Reference value :  7.75020e-06
 Reference value :  7.75020e-06
 Reference value :  7.75021e-06
 Reference value :  7.75021e-06
 Reference value :  7.75023e-06
 Reference value :  7.75025e-06
 Reference value :  7.75030e-06
 Reference value :  7.75041e-06
 Reference value :  7.75062e-06
 Reference value :  7.75097e-06
 Reference value :  7.75134e-06
 Reference value :  7.75181e-06
 Reference value :  7.75234e-06
 Reference value :  7.75304e-06
 Reference value :  7.75386e-06
 Reference value :  7.75460e-06
 Reference value :  7.75546e-06
 Reference value :  7.75622e-06
 Reference value :  7.75701e-06
 Reference value :  7.75790e-06
 Reference value :  7.75889e-06
 Reference value :  7.75995e-06
 Reference value :  7.76126e-06
 Reference value :  7.76305e-06
 Reference value :  7.76508e-06
 Reference value :  7.76801e-06
 Reference value :  7.77196e-06
 Reference value :  7.77986e-06
 Reference value :  7.79435e-06
 Reference value :  7.82333e-06
 Reference value :  7.88129e-06
 Reference value :  7.99720e-06
 Reference value :  8.00000e-06
 Reference value :  8.00001e-06
 Reference value :  8.00003e-06
 Reference value :  8.00007e-06
 Reference value :  8.00010e-06
 Reference value :  8.00010e-06
 Reference value :  8.00011e-06
 Reference value :  8.00013e-06
 Reference value :  8.00017e-06
 Reference value :  8.00023e-06
 Reference value :  8.00036e-06
 Reference value :  8.00056e-06
 Reference value :  8.00096e-06
 Reference value :  8.00145e-06
 Reference value :  8.00197e-06
 Reference value :  8.00247e-06
 Reference value :  8.00301e-06
 Reference value :  8.00356e-06
 Reference value :  8.00429e-06
 Reference value :  8.00497e-06
 Reference value :  8.00565e-06
 Reference value :  8.00634e-06
 Reference value :  8.00704e-06
 Reference value :  8.00772e-06
 Reference value :  8.00842e-06
 Reference value :  8.00936e-06
 Reference value :  8.01033e-06
 Reference value :  8.01175e-06
 Reference value :  8.01305e-06
 Reference value :  8.01445e-06
 Reference value :  8.01602e-06
 Reference value :  8.01747e-06
 Reference value :  8.01904e-06
 Reference value :  8.02093e-06
 Reference value :  8.02296e-06
 Reference value :  8.02553e-06
 Reference value :  8.02882e-06
 Reference value :  8.03538e-06
 Reference value :  8.04537e-06
 Reference value :  8.06243e-06
 Reference value :  8.09149e-06
 Reference value :  8.11953e-06
 Reference value :  8.15104e-06
 Reference value :  8.20504e-06
 Reference value :  8.25010e-06
 Reference value :  8.25011e-06
 Reference value :  8.25013e-06
 Reference value :  8.25017e-06
 Reference value :  8.25020e-06
 Reference value :  8.25020e-06
 Reference value :  8.25020e-06
 Reference value :  8.25021e-06
 Reference value :  8.25021e-06
 Reference value :  8.25023e-06
 Reference value :  8.25025e-06
 Reference value :  8.25030e-06
 Reference value :  8.25041e-06
 Reference value :  8.25062e-06
 Reference value :  8.25097e-06
 Reference value :  8.25134e-06
 Reference value :  8.25181e-06
 Reference value :  8.25234e-06
 Reference value :  8.25304e-06
 Reference value :  8.25386e-06
 Reference value :  8.25494e-06
 Reference value :  8.25597e-06
 Reference value :  8.25728e-06
 Reference value :  8.25853e-06
 Reference value :  8.26071e-06
 Reference value :  8.26276e-06
 Reference value :  8.26619e-06
 Reference value :  8.27073e-06
 Reference value :  8.27981e-06
 Reference value :  8.29798e-06
 Reference value :  8.33430e-06
 Reference value :  8.40695e-06
 Reference value :  8.50000e-06
 Reference value :  8.50000e-06
 Reference value :  8.50000e-06
 Reference value :  8.50000e-06
 Reference value :  8.50000e-06
 Reference value :  8.50000e-06
 Reference value :  8.50000e-06
 Reference value :  8.50000e-06
 Reference value :  8.50000e-06
 Reference value :  8.50000e-06
 Reference value :  8.50001e-06
 Reference value :  8.50001e-06
 Reference value :  8.50002e-06
 Reference value :  8.50004e-06
 Reference value :  8.50008e-06
 Reference value :  8.50010e-06
 Reference value :  8.50010e-06
 Reference value :  8.50011e-06
 Reference value :  8.50013e-06
 Reference value :  8.50017e-06
 Reference value :  8.50024e-06
 Reference value :  8.50039e-06
 Reference value :  8.50068e-06
 Reference value :  8.50114e-06
 Reference value :  8.50179e-06
 Reference value :  8.50248e-06
 Reference value :  8.50300e-06
 Reference value :  8.50364e-06
 Reference value :  8.50433e-06
 Reference value :  8.50518e-06
 Reference value :  8.50602e-06
 Reference value :  8.50678e-06
 Reference value :  8.50758e-06
 Reference value :  8.50849e-06
 Reference value :  8.51003e-06
 Reference value :  8.51098e-06
 Reference value :  8.51216e-06
 Reference value :  8.51353e-06
 Reference value :  8.51499e-06
 Reference value :  8.51713e-06
 Reference value :  8.51949e-06
 Reference value :  8.52422e-06
 Reference value :  8.52977e-06
 Reference value :  8.53348e-06
 Reference value :  8.53758e-06
 Reference value :  8.54297e-06
 Reference value :  8.54860e-06
 Reference value :  8.55701e-06
 Reference value :  8.56747e-06
 Reference value :  8.58216e-06
 Reference value :  8.60299e-06
 Reference value :  8.63186e-06
 Reference value :  8.67595e-06
 Reference value :  8.75010e-06
 Reference value :  8.75011e-06
 Reference value :  8.75013e-06
 Reference value :  8.75017e-06
 Reference value :  8.75020e-06
 Reference value :  8.75020e-06
 Reference value :  8.75020e-06
 Reference value :  8.75021e-06
 Reference value :  8.75021e-06
 Reference value :  8.75023e-06
 Reference value :  8.75025e-06
 Reference value :  8.75030e-06
 Reference value :  8.75041e-06
 Reference value :  8.75062e-06
 Reference value :  8.75097e-06
 Reference value :  8.75135e-06
 Reference value :  8.75183e-06
 Reference value :  8.75236e-06
 Reference value :  8.75301e-06
 Reference value :  8.75389e-06
 Reference value :  8.75480e-06
 Reference value :  8.75565e-06
 Reference value :  8.75651e-06
 Reference value :  8.75740e-06
 Reference value :  8.75875e-06
 Reference value :  8.76025e-06
 Reference value :  8.76230e-06
 Reference value :  8.76527e-06
 Reference value :  8.77005e-06
 Reference value :  8.77937e-06
 Reference value :  8.79390e-06
 Reference value :  8.82120e-06
 Reference value :  8.86812e-06
 Reference value :  8.95041e-06
 Reference value :  9.00000e-06
 Reference value :  9.00001e-06
 Reference value :  9.00003e-06
 Reference value :  9.00007e-06
 Reference value :  9.00010e-06
 Reference value :  9.00010e-06
 Reference value :  9.00011e-06
 Reference value :  9.00013e-06
 Reference value :  9.00016e-06
 Reference value :  9.00023e-06
 Reference value :  9.00036e-06
 Reference value :  9.00058e-06
 Reference value :  9.00100e-06
 Reference value :  9.00150e-06
 Reference value :  9.00203e-06
 Reference value :  9.00253e-06
 Reference value :  9.00314e-06
 Reference value :  9.00375e-06
 Reference value :  9.00447e-06
 Reference value :  9.00527e-06
 Reference value :  9.00602e-06
 Reference value :  9.00716e-06
 Reference value :  9.00828e-06
 Reference value :  9.01015e-06
 Reference value :  9.01228e-06
 Reference value :  9.01384e-06
 Reference value :  9.01559e-06
 Reference value :  9.01734e-06
 Reference value :  9.01938e-06
 Reference value :  9.02158e-06
 Reference value :  9.02377e-06
 Reference value :  9.02800e-06
 Reference value :  9.03414e-06
 Reference value :  9.04234e-06
 Reference value :  9.05873e-06
 Reference value :  9.08391e-06
 Reference value :  9.13426e-06
 Reference value :  9.22572e-06
 Reference value :  9.25010e-06
 Reference value :  9.25011e-06
 Reference value :  9.25013e-06
 Reference value :  9.25017e-06
 Reference value :  9.25020e-06
 Reference value :  9.25020e-06
 Reference value :  9.25020e-06
 Reference value :  9.25021e-06
 Reference value :  9.25021e-06
 Reference value :  9.25023e-06
 Reference value :  9.25025e-06
 Reference value :  9.25030e-06
 Reference value :  9.25041e-06
 Reference value :  9.25062e-06
 Reference value :  9.25097e-06
 Reference value :  9.25135e-06
 Reference value :  9.25182e-06
 Reference value :  9.25236e-06
 Reference value :  9.25308e-06
 Reference value :  9.25392e-06
 Reference value :  9.25467e-06
 Reference value :  9.25554e-06
 Reference value :  9.25632e-06
 Reference value :  9.25712e-06
 Reference value :  9.25805e-06
 Reference value :  9.25908e-06
 Reference value :  9.26094e-06
 Reference value :  9.26348e-06
 Reference value :  9.26679e-06
 Reference value :  9.27341e-06
 Reference value :  9.28626e-06
 Reference value :  9.30764e-06
 Reference value :  9.35042e-06
 Reference value :  9.43597e-06
 Reference value :  9.50000e-06
 Reference value :  9.50001e-06
 Reference value :  9.50003e-06
 Reference value :  9.50007e-06
 Reference value :  9.50010e-06
 Reference value :  9.50010e-06
 Reference value :  9.50011e-06
 Reference value :  9.50013e-06
 Reference value :  9.50016e-06
 Reference value :  9.50023e-06
 Reference value :  9.50036e-06
 Reference value :  9.50058e-06
 Reference value :  9.50100e-06
 Reference value :  9.50150e-06
 Reference value :  9.50203e-06
 Reference value :  9.50253e-06
 Reference value :  9.50314e-06
 Reference value :  9.50370e-06
 Reference value :  9.50448e-06
 Reference value :  9.50521e-06
 Reference value :  9.50588e-06
 Reference value :  9.50671e-06
 Reference value :  9.50756e-06
 Reference value :  9.50836e-06
 Reference value :  9.50920e-06
 Reference value :  9.51030e-06
 Reference value :  9.51170e-06
 Reference value :  9.51392e-06
 Reference value :  9.51598e-06
 Reference value :  9.51778e-06
 Reference value :  9.51928e-06
 Reference value :  9.52036e-06
 Reference value :  9.52151e-06
 Reference value :  9.52257e-06
 Reference value :  9.52370e-06
 Reference value :  9.52496e-06
 Reference value :  9.52688e-06
 Reference value :  9.52869e-06
 Reference value :  9.53221e-06
 Reference value :  9.53739e-06
 Reference value :  9.54538e-06
 Reference value :  9.55934e-06
 Reference value :  9.57533e-06
 Reference value :  9.58819e-06
 Reference value :  9.60005e-06
 Reference value :  9.60878e-06
 Reference value :  9.61822e-06
 Reference value :  9.62592e-06
 Reference value :  9.63411e-06
 Reference value :  9.64271e-06
 Reference value :  9.65069e-06
 Reference value :  9.66664e-06
 Reference value :  9.68622e-06
 Reference value :  9.71923e-06
 Reference value :  9.75010e-06
 Reference value :  9.75011e-06
 Reference value :  9.75013e-06
 Reference value :  9.75017e-06
 Reference value :  9.75020e-06
 Reference value :  9.75020e-06
 Reference value :  9.75020e-06
 Reference value :  9.75021e-06
 Reference value :  9.75021e-06
 Reference value :  9.75023e-06
 Reference value :  9.75025e-06
 Reference value :  9.75030e-06
 Reference value :  9.75041e-06
 Reference value :  9.75062e-06
 Reference value :  9.75097e-06
 Reference value :  9.75134e-06
 Reference value :  9.75181e-06
 Reference value :  9.75235e-06
 Reference value :  9.75303e-06
 Reference value :  9.75387e-06
 Reference value :  9.75461e-06
 Reference value :  9.75544e-06
 Reference value :  9.75623e-06
 Reference value :  9.75705e-06
 Reference value :  9.75845e-06
 Reference value :  9.75971e-06
 Reference value :  9.76185e-06
 Reference value :  9.76450e-06
 Reference value :  9.76846e-06
 Reference value :  9.77639e-06
 Reference value :  9.78971e-06
 Reference value :  9.81407e-06
 Reference value :  9.85881e-06
 Reference value :  9.94828e-06
 Reference value :  1.00000e-05
 Reference value :  1.00000e-05
 Reference value :  1.00000e-05
 Reference value :  1.00001e-05
 Reference value :  1.00001e-05
 Reference value :  1.00001e-05
 Reference value :  1.00001e-05
 Reference value :  1.00001e-05
 Reference value :  1.00002e-05
 Reference value :  1.00002e-05
 Reference value :  1.00004e-05
 Reference value :  1.00006e-05
 Reference value :  1.00010e-05
 Reference value :  1.00015e-05
 Reference value :  1.00020e-05
 Reference value :  1.00025e-05
 Reference value :  1.00030e-05
 Reference value :  1.00036e-05
 Reference value :  1.00042e-05
 Reference value :  1.00049e-05
 Reference value :  1.00058e-05
 Reference value :  1.00068e-05
 Reference value :  1.00079e-05
 Reference value :  1.00094e-05
 Reference value :  1.00104e-05
 Reference value :  1.00115e-05
 Reference value :  1.00128e-05
 Reference value :  1.00143e-05
 Reference value :  1.00157e-05
 Reference value :  1.00174e-05
 Reference value :  1.00207e-05
 Reference value :  1.00251e-05
 Reference value :  1.00340e-05
 Reference value :  1.00504e-05
 Reference value :  1.00801e-05
 Reference value :  1.01394e-05
 Reference value :  1.02501e-05
 Reference value :  1.02501e-05
 Reference value :  1.02501e-05
 Reference value :  1.02502e-05
 Reference value :  1.02502e-05
 Reference value :  1.02502e-05
 Reference value :  1.02502e-05
 Reference value :  1.02502e-05
 Reference value :  1.02502e-05
 Reference value :  1.02502e-05
 Reference value :  1.02503e-05
 Reference value :  1.02503e-05
 Reference value :  1.02504e-05
 Reference value :  1.02506e-05
 Reference value :  1.02510e-05
 Reference value :  1.02513e-05
 Reference value :  1.02518e-05
 Reference value :  1.02523e-05
 Reference value :  1.02530e-05
 Reference value :  1.02539e-05
 Reference value :  1.02546e-05
 Reference value :  1.02555e-05
 Reference value :  1.02564e-05
 Reference value :  1.02572e-05
 Reference value :  1.02581e-05
 Reference value :  1.02591e-05
 Reference value :  1.02603e-05
 Reference value :  1.02615e-05
 Reference value :  1.02634e-05
 Reference value :  1.02655e-05
 Reference value :  1.02686e-05
 Reference value :  1.02732e-05
 Reference value :  1.02824e-05
 Reference value :  1.03009e-05
 Reference value :  1.03361e-05
 Reference value :  1.04065e-05
 Reference value :  1.05000e-05
 Reference value :  1.05000e-05
 Reference value :  1.05000e-05
 Reference value :  1.05001e-05
 Reference value :  1.05001e-05
 Reference value :  1.05001e-05
 Reference value :  1.05001e-05
 Reference value :  1.05001e-05
 Reference value :  1.05002e-05
 Reference value :  1.05002e-05
 Reference value :  1.05004e-05
 Reference value :  1.05006e-05
 Reference value :  1.05010e-05
 Reference value :  1.05015e-05
 Reference value :  1.05020e-05
 Reference value :  1.05025e-05
 Reference value :  1.05030e-05
 Reference value :  1.05036e-05
 Reference value :  1.05043e-05
 Reference value :  1.05050e-05
 Reference value :  1.05056e-05
 Reference value :  1.05063e-05
 Reference value :  1.05070e-05
 Reference value :  1.05077e-05
 Reference value :  1.05085e-05
 Reference value :  1.05093e-05
 Reference value :  1.05103e-05
 Reference value :  1.05118e-05
 Reference value :  1.05140e-05
 Reference value :  1.05155e-05
 Reference value :  1.05171e-05
 Reference value :  1.05186e-05
 Reference value :  1.05197e-05
 Reference value :  1.05208e-05
 Reference value :  1.05220e-05
 Reference value :  1.05232e-05
 Reference value :  1.05247e-05
 Reference value :  1.05261e-05
 Reference value :  1.05284e-05
 Reference value :  1.05307e-05
 Reference value :  1.05351e-05
 Reference value :  1.05432e-05
 Reference value :  1.05555e-05
 Reference value :  1.05801e-05
 Reference value :  1.06114e-05
 Reference value :  1.06466e-05
 Reference value :  1.06700e-05
 Reference value :  1.06878e-05
 Reference value :  1.07043e-05
 Reference value :  1.07227e-05
 Reference value :  1.07414e-05
 Reference value :  1.07501e-05
 Reference value :  1.07501e-05
 Reference value :  1.07501e-05
 Reference value :  1.07502e-05
 Reference value :  1.07502e-05
 Reference value :  1.07502e-05
 Reference value :  1.07502e-05
 Reference value :  1.07502e-05
 Reference value :  1.07502e-05
 Reference value :  1.07502e-05
 Reference value :  1.07503e-05
 Reference value :  1.07503e-05
 Reference value :  1.07504e-05
 Reference value :  1.07506e-05
 Reference value :  1.07510e-05
 Reference value :  1.07514e-05
 Reference value :  1.07518e-05
 Reference value :  1.07524e-05
 Reference value :  1.07531e-05
 Reference value :  1.07539e-05
 Reference value :  1.07547e-05
 Reference value :  1.07556e-05
 Reference value :  1.07564e-05
 Reference value :  1.07573e-05
 Reference value :  1.07587e-05
 Reference value :  1.07601e-05
 Reference value :  1.07622e-05
 Reference value :  1.07650e-05
 Reference value :  1.07697e-05
 Reference value :  1.07789e-05
 Reference value :  1.07928e-05
 Reference value :  1.08197e-05
 Reference value :  1.08404e-05
 Reference value :  1.08617e-05
 Reference value :  1.08750e-05
 Reference value :  1.08869e-05
 Reference value :  1.08965e-05
 Reference value :  1.09071e-05
 Reference value :  1.09172e-05
 Reference value :  1.09268e-05
 Reference value :  1.09374e-05
 Reference value :  1.09586e-05
 Reference value :  1.09865e-05
 Reference value :  1.10000e-05
 Reference value :  1.10000e-05
 Reference value :  1.10000e-05
 Reference value :  1.10001e-05
 Reference value :  1.10001e-05
 Reference value :  1.10001e-05
 Reference value :  1.10001e-05
 Reference value :  1.10001e-05
 Reference value :  1.10002e-05
 Reference value :  1.10002e-05
 Reference value :  1.10004e-05
 Reference value :  1.10006e-05
 Reference value :  1.10010e-05
 Reference value :  1.10015e-05
 Reference value :  1.10020e-05
 Reference value :  1.10025e-05
 Reference value :  1.10030e-05
 Reference value :  1.10036e-05
 Reference value :  1.10042e-05
 Reference value :  1.10050e-05
 Reference value :  1.10058e-05
 Reference value :  1.10068e-05
 Reference value :  1.10079e-05
 Reference value :  1.10093e-05
 Reference value :  1.10104e-05
 Reference value :  1.10115e-05
 Reference value :  1.10127e-05
 Reference value :  1.10141e-05
 Reference value :  1.10156e-05
 Reference value :  1.10172e-05
 Reference value :  1.10203e-05
 Reference value :  1.10253e-05
 Reference value :  1.10348e-05
 Reference value :  1.10529e-05
 Reference value :  1.10862e-05
 Reference value :  1.11528e-05
 Reference value :  1.12501e-05
 Reference value :  1.12501e-05
 Reference value :  1.12501e-05
 Reference value :  1.12502e-05
 Reference value :  1.12502e-05
 Reference value :  1.12502e-05
 Reference value :  1.12502e-05
 Reference value :  1.12502e-05
 Reference value :  1.12502e-05
 Reference value :  1.12502e-05
 Reference value :  1.12503e-05
 Reference value :  1.12503e-05
 Reference value :  1.12504e-05
 Reference value :  1.12506e-05
 Reference value :  1.12510e-05
 Reference value :  1.12513e-05
 Reference value :  1.12518e-05
 Reference value :  1.12523e-05
 Reference value :  1.12530e-05
 Reference value :  1.12539e-05
 Reference value :  1.12546e-05
 Reference value :  1.12555e-05
 Reference value :  1.12564e-05
 Reference value :  1.12571e-05
 Reference value :  1.12581e-05
 Reference value :  1.12591e-05
 Reference value :  1.12603e-05
 Reference value :  1.12615e-05
 Reference value :  1.12634e-05
 Reference value :  1.12654e-05
 Reference value :  1.12686e-05
 Reference value :  1.12731e-05
 Reference value :  1.12821e-05
 Reference value :  1.13002e-05
 Reference value :  1.13346e-05
 Reference value :  1.14033e-05
 Reference value :  1.15000e-05
 Reference value :  1.15000e-05
 Reference value :  1.15000e-05
 Reference value :  1.15001e-05
 Reference value :  1.15001e-05
 Reference value :  1.15001e-05
 Reference value :  1.15001e-05
 Reference value :  1.15001e-05
 Reference value :  1.15002e-05
 Reference value :  1.15002e-05
 Reference value :  1.15004e-05
 Reference value :  1.15006e-05
 Reference value :  1.15010e-05
 Reference value :  1.15015e-05
 Reference value :  1.15020e-05
 Reference value :  1.15025e-05
 Reference value :  1.15030e-05
 Reference value :  1.15036e-05
 Reference value :  1.15043e-05
 Reference value :  1.15050e-05
 Reference value :  1.15056e-05
 Reference value :  1.15063e-05
 Reference value :  1.15070e-05
 Reference value :  1.15078e-05
 Reference value :  1.15085e-05
 Reference value :  1.15094e-05
 Reference value :  1.15104e-05
 Reference value :  1.15119e-05
 Reference value :  1.15134e-05
 Reference value :  1.15150e-05
 Reference value :  1.15166e-05
 Reference value :  1.15180e-05
 Reference value :  1.15191e-05
 Reference value :  1.15201e-05
 Reference value :  1.15213e-05
 Reference value :  1.15223e-05
 Reference value :  1.15235e-05
 Reference value :  1.15247e-05
 Reference value :  1.15265e-05
 Reference value :  1.15284e-05
 Reference value :  1.15317e-05
 Reference value :  1.15370e-05
 Reference value :  1.15424e-05
 Reference value :  1.15474e-05
 Reference value :  1.15514e-05
 Reference value :  1.15544e-05
 Reference value :  1.15566e-05
 Reference value :  1.15591e-05
 Reference value :  1.15635e-05
 Reference value :  1.15682e-05
 Reference value :  1.15757e-05
 Reference value :  1.15855e-05
 Reference value :  1.16021e-05
 Reference value :  1.16263e-05
 Reference value :  1.16490e-05
 Reference value :  1.16768e-05
 Reference value :  1.17050e-05
 Reference value :  1.17433e-05
 Reference value :  1.17501e-05
 Reference value :  1.17501e-05
 Reference value :  1.17501e-05
 Reference value :  1.17502e-05
 Reference value :  1.17502e-05
 Reference value :  1.17502e-05
 Reference value :  1.17502e-05
 Reference value :  1.17502e-05
 Reference value :  1.17502e-05
 Reference value :  1.17502e-05
 Reference value :  1.17503e-05
 Reference value :  1.17503e-05
 Reference value :  1.17504e-05
 Reference value :  1.17506e-05
 Reference value :  1.17510e-05
 Reference value :  1.17513e-05
 Reference value :  1.17518e-05
 Reference value :  1.17523e-05
 Reference value :  1.17530e-05
 Reference value :  1.17539e-05
 Reference value :  1.17547e-05
 Reference value :  1.17556e-05
 Reference value :  1.17564e-05
 Reference value :  1.17573e-05
 Reference value :  1.17587e-05
 Reference value :  1.17601e-05
 Reference value :  1.17622e-05
 Reference value :  1.17651e-05
 Reference value :  1.17697e-05
 Reference value :  1.17790e-05
 Reference value :  1.17930e-05
 Reference value :  1.18201e-05
 Reference value :  1.18663e-05
 Reference value :  1.19480e-05
 Reference value :  1.20000e-05
 Reference value :  1.20000e-05
 Reference value :  1.20000e-05
 Reference value :  1.20001e-05
 Reference value :  1.20001e-05
 Reference value :  1.20001e-05
 Reference value :  1.20001e-05
 Reference value :  1.20001e-05
 Reference value :  1.20002e-05
 Reference value :  1.20002e-05
 Reference value :  1.20004e-05
 Reference value :  1.20006e-05
 Reference value :  1.20010e-05
 Reference value :  1.20015e-05
 Reference value :  1.20020e-05
 Reference value :  1.20025e-05
 Reference value :  1.20030e-05
 Reference value :  1.20036e-05
 Reference value :  1.20043e-05
 Reference value :  1.20050e-05
 Reference value :  1.20059e-05
 Reference value :  1.20069e-05
 Reference value :  1.20080e-05
 Reference value :  1.20094e-05
 Reference value :  1.20105e-05
 Reference value :  1.20116e-05
 Reference value :  1.20126e-05
 Reference value :  1.20138e-05
 Reference value :  1.20150e-05
 Reference value :  1.20164e-05
 Reference value :  1.20192e-05
 Reference value :  1.20243e-05
 Reference value :  1.20334e-05
 Reference value :  1.20517e-05
 Reference value :  1.20874e-05
 Reference value :  1.21570e-05
 Reference value :  1.22501e-05
 Reference value :  1.22501e-05
 Reference value :  1.22501e-05
 Reference value :  1.22502e-05
 Reference value :  1.22502e-05
 Reference value :  1.22502e-05
 Reference value :  1.22502e-05
 Reference value :  1.22502e-05
 Reference value :  1.22502e-05
 Reference value :  1.22502e-05
 Reference value :  1.22503e-05
 Reference value :  1.22503e-05
 Reference value :  1.22504e-05
 Reference value :  1.22506e-05
 Reference value :  1.22510e-05
 Reference value :  1.22513e-05
 Reference value :  1.22518e-05
 Reference value :  1.22523e-05
 Reference value :  1.22530e-05
 Reference value :  1.22539e-05
 Reference value :  1.22546e-05
 Reference value :  1.22555e-05
 Reference value :  1.22564e-05
 Reference value :  1.22572e-05
 Reference value :  1.22581e-05
 Reference value :  1.22591e-05
 Reference value :  1.22609e-05
 Reference value :  1.22635e-05
 Reference value :  1.22668e-05
 Reference value :  1.22734e-05
 Reference value :  1.22866e-05
 Reference value :  1.23086e-05
 Reference value :  1.23525e-05
 Reference value :  1.24403e-05
 Reference value :  1.25000e-05
 Reference value :  1.25000e-05
 Reference value :  1.25000e-05
 Reference value :  1.25001e-05
 Reference value :  1.25001e-05
 Reference value :  1.25001e-05
 Reference value :  1.25001e-05
 Reference value :  1.25001e-05
 Reference value :  1.25002e-05
 Reference value :  1.25002e-05
 Reference value :  1.25004e-05
 Reference value :  1.25006e-05
 Reference value :  1.25010e-05
 Reference value :  1.25015e-05
 Reference value :  1.25020e-05
 Reference value :  1.25025e-05
 Reference value :  1.25030e-05
 Reference value :  1.25036e-05
 Reference value :  1.25043e-05
 Reference value :  1.25050e-05
 Reference value :  1.25058e-05
 Reference value :  1.25065e-05
 Reference value :  1.25076e-05
 Reference value :  1.25085e-05
 Reference value :  1.25094e-05
 Reference value :  1.25107e-05
 Reference value :  1.25121e-05
 Reference value :  1.25141e-05
 Reference value :  1.25160e-05
 Reference value :  1.25180e-05
 Reference value :  1.25194e-05
 Reference value :  1.25207e-05
 Reference value :  1.25221e-05
 Reference value :  1.25236e-05
 Reference value :  1.25253e-05
 Reference value :  1.25270e-05
 Reference value :  1.25295e-05
 Reference value :  1.25329e-05
 Reference value :  1.25379e-05
 Reference value :  1.25470e-05
 Reference value :  1.25604e-05
 Reference value :  1.25746e-05
 Reference value :  1.25878e-05
 Reference value :  1.26027e-05
 Reference value :  1.26126e-05
 Reference value :  1.26223e-05
 Reference value :  1.26313e-05
 Reference value :  1.26404e-05
 Reference value :  1.26507e-05
 Reference value :  1.26621e-05
 Reference value :  1.26785e-05
 Reference value :  1.26900e-05
 Reference value :  1.26970e-05
 Reference value :  1.27050e-05
 Reference value :  1.27123e-05
 Reference value :  1.27191e-05
 Reference value :  1.27270e-05
 Reference value :  1.27427e-05
 Reference value :  1.27501e-05
 Reference value :  1.27501e-05
 Reference value :  1.27501e-05
 Reference value :  1.27502e-05
 Reference value :  1.27502e-05
 Reference value :  1.27502e-05
 Reference value :  1.27502e-05
 Reference value :  1.27502e-05
 Reference value :  1.27502e-05
 Reference value :  1.27502e-05
 Reference value :  1.27503e-05
 Reference value :  1.27503e-05
 Reference value :  1.27504e-05
 Reference value :  1.27506e-05
 Reference value :  1.27510e-05
 Reference value :  1.27513e-05
 Reference value :  1.27518e-05
 Reference value :  1.27523e-05
 Reference value :  1.27530e-05
 Reference value :  1.27539e-05
 Reference value :  1.27547e-05
 Reference value :  1.27556e-05
 Reference value :  1.27564e-05
 Reference value :  1.27573e-05
 Reference value :  1.27588e-05
 Reference value :  1.27602e-05
 Reference value :  1.27623e-05
 Reference value :  1.27652e-05
 Reference value :  1.27697e-05
 Reference value :  1.27789e-05
 Reference value :  1.27929e-05
 Reference value :  1.28197e-05
 Reference value :  1.28658e-05
 Reference value :  1.29470e-05
 Reference value :  1.30000e-05
 Reference value :  1.30000e-05
 Reference value :  1.30000e-05
 Reference value :  1.30001e-05
 Reference value :  1.30001e-05
 Reference value :  1.30001e-05
 Reference value :  1.30001e-05
 Reference value :  1.30001e-05
 Reference value :  1.30002e-05
 Reference value :  1.30002e-05
 Reference value :  1.30004e-05
 Reference value :  1.30006e-05
 Reference value :  1.30010e-05
 Reference value :  1.30015e-05
 Reference value :  1.30020e-05
 Reference value :  1.30025e-05
 Reference value :  1.30030e-05
 Reference value :  1.30036e-05
 Reference value :  1.30043e-05
 Reference value :  1.30050e-05
 Reference value :  1.30059e-05
 Reference value :  1.30069e-05
 Reference value :  1.30080e-05
 Reference value :  1.30094e-05
 Reference value :  1.30106e-05
 Reference value :  1.30118e-05
 Reference value :  1.30130e-05
 Reference value :  1.30143e-05
 Reference value :  1.30160e-05
 Reference value :  1.30178e-05
 Reference value :  1.30211e-05
 Reference value :  1.30257e-05
 Reference value :  1.30338e-05
 Reference value :  1.30483e-05
 Reference value :  1.30730e-05
 Reference value :  1.31192e-05
 Reference value :  1.32009e-05
 Reference value :  1.32501e-05
 Reference value :  1.32501e-05
 Reference value :  1.32501e-05
 Reference value :  1.32502e-05
 Reference value :  1.32502e-05
 Reference value :  1.32502e-05
 Reference value :  1.32502e-05
 Reference value :  1.32502e-05
 Reference value :  1.32502e-05
 Reference value :  1.32502e-05
 Reference value :  1.32503e-05
 Reference value :  1.32503e-05
 Reference value :  1.32504e-05
 Reference value :  1.32506e-05
 Reference value :  1.32510e-05
 Reference value :  1.32514e-05
 Reference value :  1.32518e-05
 Reference value :  1.32524e-05
 Reference value :  1.32531e-05
 Reference value :  1.32539e-05
 Reference value :  1.32546e-05
 Reference value :  1.32555e-05
 Reference value :  1.32563e-05
 Reference value :  1.32571e-05
 Reference value :  1.32579e-05
 Reference value :  1.32589e-05
 Reference value :  1.32608e-05
 Reference value :  1.32633e-05
 Reference value :  1.32665e-05
 Reference value :  1.32726e-05
 Reference value :  1.32846e-05
 Reference value :  1.33056e-05
 Reference value :  1.33474e-05
 Reference value :  1.34309e-05
 Reference value :  1.35000e-05
 Reference value :  1.35000e-05
 Reference value :  1.35000e-05
 Reference value :  1.35001e-05
 Reference value :  1.35001e-05
 Reference value :  1.35001e-05
 Reference value :  1.35001e-05
 Reference value :  1.35001e-05
 Reference value :  1.35002e-05
 Reference value :  1.35002e-05
 Reference value :  1.35004e-05
 Reference value :  1.35006e-05
 Reference value :  1.35010e-05
 Reference value :  1.35015e-05
 Reference value :  1.35020e-05
 Reference value :  1.35025e-05
 Reference value :  1.35030e-05
 Reference value :  1.35036e-05
 Reference value :  1.35043e-05
 Reference value :  1.35050e-05
 Reference value :  1.35058e-05
 Reference value :  1.35066e-05
 Reference value :  1.35074e-05
 Reference value :  1.35081e-05
 Reference value :  1.35090e-05
 Reference value :  1.35101e-05
 Reference value :  1.35114e-05
 Reference value :  1.35137e-05
 Reference value :  1.35158e-05
 Reference value :  1.35176e-05
 Reference value :  1.35190e-05
 Reference value :  1.35204e-05
 Reference value :  1.35218e-05
 Reference value :  1.35231e-05
 Reference value :  1.35245e-05
 Reference value :  1.35260e-05
 Reference value :  1.35281e-05
 Reference value :  1.35304e-05
 Reference value :  1.35349e-05
 Reference value :  1.35410e-05
 Reference value :  1.35464e-05
 Reference value :  1.35513e-05
 Reference value :  1.35578e-05
 Reference value :  1.35667e-05
 Reference value :  1.35722e-05
 Reference value :  1.35783e-05
 Reference value :  1.35853e-05
 Reference value :  1.35922e-05
 Reference value :  1.35987e-05
 Reference value :  1.36068e-05
 Reference value :  1.36206e-05
 Reference value :  1.36362e-05
 Reference value :  1.36648e-05
 Reference value :  1.37125e-05
 Reference value :  1.37501e-05
 Reference value :  1.37501e-05
 Reference value :  1.37501e-05
 Reference value :  1.37502e-05
 Reference value :  1.37502e-05
 Reference value :  1.37502e-05
 Reference value :  1.37502e-05
 Reference value :  1.37502e-05
 Reference value :  1.37502e-05
 Reference value :  1.37502e-05
 Reference value :  1.37503e-05
 Reference value :  1.37503e-05
 Reference value :  1.37504e-05
 Reference value :  1.37506e-05
 Reference value :  1.37510e-05
 Reference value :  1.37513e-05
 Reference value :  1.37518e-05
 Reference value :  1.37523e-05
 Reference value :  1.37531e-05
 Reference value :  1.37539e-05
 Reference value :  1.37546e-05
 Reference value :  1.37554e-05
 Reference value :  1.37562e-05
 Reference value :  1.37570e-05
 Reference value :  1.37582e-05
 Reference value :  1.37594e-05
 Reference value :  1.37614e-05
 Reference value :  1.37640e-05
 Reference value :  1.37675e-05
 Reference value :  1.37745e-05
 Reference value :  1.37879e-05
 Reference value :  1.38106e-05
 Reference value :  1.38561e-05
 Reference value :  1.39471e-05
 Reference value :  1.40000e-05
 Reference value :  1.40000e-05
 Reference value :  1.40000e-05
 Reference value :  1.40001e-05
 Reference value :  1.40001e-05
 Reference value :  1.40001e-05
 Reference value :  1.40001e-05
 Reference value :  1.40001e-05
 Reference value :  1.40002e-05
 Reference value :  1.40002e-05
 Reference value :  1.40004e-05
 Reference value :  1.40006e-05
 Reference value :  1.40010e-05
 Reference value :  1.40015e-05
 Reference value :  1.40020e-05
 Reference value :  1.40025e-05
 Reference value :  1.40030e-05
 Reference value :  1.40036e-05
 Reference value :  1.40042e-05
 Reference value :  1.40049e-05
 Reference value :  1.40058e-05
 Reference value :  1.40068e-05
 Reference value :  1.40079e-05
 Reference value :  1.40092e-05
 Reference value :  1.40102e-05
 Reference value :  1.40114e-05
 Reference value :  1.40123e-05
 Reference value :  1.40135e-05
 Reference value :  1.40147e-05
 Reference value :  1.40161e-05
 Reference value :  1.40189e-05
 Reference value :  1.40233e-05
 Reference value :  1.40321e-05
 Reference value :  1.40498e-05
 Reference value :  1.40839e-05
 Reference value :  1.41523e-05
 Reference value :  1.42501e-05
 Reference value :  1.42501e-05
 Reference value :  1.42501e-05
 Reference value :  1.42502e-05
 Reference value :  1.42502e-05
 Reference value :  1.42502e-05
 Reference value :  1.42502e-05
 Reference value :  1.42502e-05
 Reference value :  1.42502e-05
 Reference value :  1.42502e-05
 Reference value :  1.42503e-05
 Reference value :  1.42503e-05
 Reference value :  1.42504e-05
 Reference value :  1.42506e-05
 Reference value :  1.42510e-05
 Reference value :  1.42513e-05
 Reference value :  1.42518e-05
 Reference value :  1.42523e-05
 Reference value :  1.42530e-05
 Reference value :  1.42539e-05
 Reference value :  1.42546e-05
 Reference value :  1.42555e-05
 Reference value :  1.42563e-05
 Reference value :  1.42571e-05
 Reference value :  1.42580e-05
 Reference value :  1.42590e-05
 Reference value :  1.42601e-05
 Reference value :  1.42614e-05
 Reference value :  1.42635e-05
 Reference value :  1.42654e-05
 Reference value :  1.42687e-05
 Reference value :  1.42729e-05
 Reference value :  1.42813e-05
 Reference value :  1.42981e-05
 Reference value :  1.43292e-05
 Reference value :  1.43914e-05
 Reference value :  1.45000e-05
 Reference value :  1.45000e-05
 Reference value :  1.45000e-05
 Reference value :  1.45001e-05
 Reference value :  1.45001e-05
 Reference value :  1.45001e-05
 Reference value :  1.45001e-05
 Reference value :  1.45001e-05
 Reference value :  1.45002e-05
 Reference value :  1.45002e-05
 Reference value :  1.45004e-05
 Reference value :  1.45006e-05
 Reference value :  1.45010e-05
 Reference value :  1.45015e-05
 Reference value :  1.45020e-05
 Reference value :  1.45025e-05
 Reference value :  1.45030e-05
 Reference value :  1.45036e-05
 Reference value :  1.45043e-05
 Reference value :  1.45050e-05
 Reference value :  1.45056e-05
 Reference value :  1.45063e-05
 Reference value :  1.45070e-05
 Reference value :  1.45078e-05
 Reference value :  1.45085e-05
 Reference value :  1.45095e-05
 Reference value :  1.45105e-05
 Reference value :  1.45120e-05
 Reference value :  1.45130e-05
 Reference value :  1.45142e-05
 Reference value :  1.45154e-05
 Reference value :  1.45167e-05
 Reference value :  1.45180e-05
 Reference value :  1.45190e-05
 Reference value :  1.45199e-05
 Reference value :  1.45210e-05
 Reference value :  1.45221e-05
 Reference value :  1.45231e-05
 Reference value :  1.45245e-05
 Reference value :  1.45259e-05
 Reference value :  1.45280e-05
 Reference value :  1.45304e-05
 Reference value :  1.45335e-05
 Reference value :  1.45365e-05
 Reference value :  1.45389e-05
 Reference value :  1.45412e-05
 Reference value :  1.45438e-05
 Reference value :  1.45466e-05
 Reference value :  1.45494e-05
 Reference value :  1.45549e-05
 Reference value :  1.45620e-05
 Reference value :  1.45736e-05
 Reference value :  1.45964e-05
 Reference value :  1.46297e-05
 Reference value :  1.46932e-05
 Reference value :  1.47501e-05
 Reference value :  1.47501e-05
 Reference value :  1.47501e-05
 Reference value :  1.47502e-05
 Reference value :  1.47502e-05
 Reference value :  1.47502e-05
 Reference value :  1.47502e-05
 Reference value :  1.47502e-05
 Reference value :  1.47502e-05
 Reference value :  1.47502e-05
 Reference value :  1.47503e-05
 Reference value :  1.47503e-05
 Reference value :  1.47504e-05
 Reference value :  1.47506e-05
 Reference value :  1.47510e-05
 Reference value :  1.47514e-05
 Reference value :  1.47518e-05
 Reference value :  1.47524e-05
 Reference value :  1.47531e-05
 Reference value :  1.47539e-05
 Reference value :  1.47547e-05
 Reference value :  1.47556e-05
 Reference value :  1.47564e-05
 Reference value :  1.47573e-05
 Reference value :  1.47587e-05
 Reference value :  1.47601e-05
 Reference value :  1.47622e-05
 Reference value :  1.47650e-05
 Reference value :  1.47697e-05
 Reference value :  1.47789e-05
 Reference value :  1.47927e-05
 Reference value :  1.48195e-05
 Reference value :  1.48648e-05
 Reference value :  1.49446e-05
 Reference value :  1.50000e-05
 Reference value :  1.50000e-05
 Reference value :  1.50000e-05
 Reference value :  1.50001e-05
 Reference value :  1.50001e-05
 Reference value :  1.50001e-05
 Reference value :  1.50001e-05
 Reference value :  1.50001e-05
 Reference value :  1.50002e-05
 Reference value :  1.50002e-05
 Reference value :  1.50004e-05
 Reference value :  1.50006e-05
 Reference value :  1.50010e-05
 Reference value :  1.50015e-05
 Reference value :  1.50020e-05
 Reference value :  1.50025e-05
 Reference value :  1.50030e-05
 Reference value :  1.50036e-05
 Reference value :  1.50043e-05
 Reference value :  1.50050e-05
 Reference value :  1.50059e-05
 Reference value :  1.50069e-05
 Reference value :  1.50080e-05
 Reference value :  1.50094e-05
 Reference value :  1.50105e-05
 Reference value :  1.50117e-05
 Reference value :  1.50128e-05
 Reference value :  1.50140e-05
 Reference value :  1.50155e-05
 Reference value :  1.50172e-05
 Reference value :  1.50202e-05
 Reference value :  1.50245e-05
 Reference value :  1.50324e-05
 Reference value :  1.50467e-05
 Reference value :  1.50721e-05
 Reference value :  1.51209e-05
 Reference value :  1.52090e-05
 Reference value :  1.52501e-05
 Reference value :  1.52501e-05
 Reference value :  1.52501e-05
 Reference value :  1.52502e-05
 Reference value :  1.52502e-05
 Reference value :  1.52502e-05
 Reference value :  1.52502e-05
 Reference value :  1.52502e-05
 Reference value :  1.52502e-05
 Reference value :  1.52502e-05
 Reference value :  1.52503e-05
 Reference value :  1.52503e-05
 Reference value :  1.52504e-05
 Reference value :  1.52506e-05
 Reference value :  1.52510e-05
 Reference value :  1.52514e-05
 Reference value :  1.52518e-05
 Reference value :  1.52524e-05
 Reference value :  1.52531e-05
 Reference value :  1.52539e-05
 Reference value :  1.52546e-05
 Reference value :  1.52555e-05
 Reference value :  1.52563e-05
 Reference value :  1.52571e-05
 Reference value :  1.52580e-05
 Reference value :  1.52590e-05
 Reference value :  1.52608e-05
 Reference value :  1.52633e-05
 Reference value :  1.52666e-05
 Reference value :  1.52726e-05
 Reference value :  1.52848e-05
 Reference value :  1.53058e-05
 Reference value :  1.53478e-05
 Reference value :  1.54317e-05
 Reference value :  1.55000e-05
 Reference value :  1.55010e-05
[...]
 Reference value :  1.66003e-04
 Reference value :  1.66004e-04
 Reference value :  1.66004e-04
 Reference value :  1.66005e-04
 Reference value :  1.66006e-04
 Reference value :  1.66007e-04
 Reference value :  1.66008e-04
 Reference value :  1.66009e-04
 Reference value :  1.66010e-04
 Reference value :  1.66011e-04
 Reference value :  1.66012e-04
 Reference value :  1.66013e-04
 Reference value :  1.66015e-04
 Reference value :  1.66016e-04
 Reference value :  1.66019e-04
 Reference value :  1.66024e-04
 Reference value :  1.66033e-04
 Reference value :  1.66053e-04
 Reference value :  1.66091e-04
 Reference value :  1.66167e-04
 Reference value :  1.66250e-04
 Reference value :  1.66250e-04
 Reference value :  1.66250e-04
 Reference value :  1.66250e-04
 Reference value :  1.66250e-04
 Reference value :  1.66250e-04
 Reference value :  1.66250e-04
 Reference value :  1.66250e-04
 Reference value :  1.66250e-04
 Reference value :  1.66250e-04
 Reference value :  1.66250e-04
 Reference value :  1.66250e-04
 Reference value :  1.66250e-04
 Reference value :  1.66251e-04
 Reference value :  1.66251e-04
 Reference value :  1.66251e-04
 Reference value :  1.66252e-04
 Reference value :  1.66252e-04
 Reference value :  1.66253e-04
 Reference value :  1.66254e-04
 Reference value :  1.66255e-04
 Reference value :  1.66256e-04
 Reference value :  1.66256e-04
 Reference value :  1.66257e-04
 Reference value :  1.66258e-04
 Reference value :  1.66259e-04
 Reference value :  1.66260e-04
 Reference value :  1.66262e-04
 Reference value :  1.66263e-04
 Reference value :  1.66265e-04
 Reference value :  1.66269e-04
 Reference value :  1.66273e-04
 Reference value :  1.66282e-04
 Reference value :  1.66301e-04
 Reference value :  1.66336e-04
 Reference value :  1.66405e-04
 Reference value :  1.66500e-04
 Reference value :  1.66500e-04
 Reference value :  1.66500e-04
 Reference value :  1.66500e-04
 Reference value :  1.66500e-04
 Reference value :  1.66500e-04
 Reference value :  1.66500e-04
 Reference value :  1.66500e-04
 Reference value :  1.66500e-04
 Reference value :  1.66500e-04
 Reference value :  1.66500e-04
 Reference value :  1.66501e-04
 Reference value :  1.66501e-04
 Reference value :  1.66501e-04
 Reference value :  1.66502e-04
 Reference value :  1.66502e-04
 Reference value :  1.66503e-04
 Reference value :  1.66504e-04
 Reference value :  1.66504e-04
 Reference value :  1.66505e-04
 Reference value :  1.66506e-04
 Reference value :  1.66506e-04
 Reference value :  1.66507e-04
 Reference value :  1.66508e-04
 Reference value :  1.66508e-04
 Reference value :  1.66509e-04
 Reference value :  1.66510e-04
 Reference value :  1.66512e-04
 Reference value :  1.66513e-04
 Reference value :  1.66514e-04
 Reference value :  1.66515e-04
 Reference value :  1.66517e-04
 Reference value :  1.66518e-04
 Reference value :  1.66519e-04
 Reference value :  1.66521e-04
 Reference value :  1.66522e-04
 Reference value :  1.66523e-04
 Reference value :  1.66525e-04
 Reference value :  1.66526e-04
 Reference value :  1.66528e-04
 Reference value :  1.66531e-04
 Reference value :  1.66535e-04
 Reference value :  1.66540e-04
 Reference value :  1.66544e-04
 Reference value :  1.66548e-04
 Reference value :  1.66552e-04
 Reference value :  1.66555e-04
 Reference value :  1.66557e-04
 Reference value :  1.66560e-04
 Reference value :  1.66565e-04
 Reference value :  1.66570e-04
 Reference value :  1.66578e-04
 Reference value :  1.66590e-04
 Reference value :  1.66606e-04
 Reference value :  1.66625e-04
 Reference value :  1.66645e-04
 Reference value :  1.66662e-04
 Reference value :  1.66679e-04
 Reference value :  1.66696e-04
 Reference value :  1.66707e-04
 Reference value :  1.66722e-04
 Reference value :  1.66750e-04
 Reference value :  1.66750e-04
 Reference value :  1.66750e-04
 Reference value :  1.66750e-04
 Reference value :  1.66750e-04
 Reference value :  1.66750e-04
 Reference value :  1.66750e-04
 Reference value :  1.66750e-04
 Reference value :  1.66750e-04
 Reference value :  1.66750e-04
 Reference value :  1.66750e-04
 Reference value :  1.66750e-04
 Reference value :  1.66750e-04
 Reference value :  1.66750e-04
 Reference value :  1.66751e-04
 Reference value :  1.66751e-04
 Reference value :  1.66751e-04
 Reference value :  1.66752e-04
 Reference value :  1.66752e-04
 Reference value :  1.66753e-04
 Reference value :  1.66754e-04
 Reference value :  1.66755e-04
 Reference value :  1.66755e-04
 Reference value :  1.66756e-04
 Reference value :  1.66757e-04
 Reference value :  1.66758e-04
 Reference value :  1.66760e-04
 Reference value :  1.66762e-04
 Reference value :  1.66764e-04
 Reference value :  1.66768e-04
 Reference value :  1.66775e-04
 Reference value :  1.66788e-04
 Reference value :  1.66811e-04
 Reference value :  1.66856e-04
 Reference value :  1.66943e-04
 Reference value :  1.67000e-04
 Reference value :  1.67000e-04
 Reference value :  1.67000e-04
 Reference value :  1.67000e-04
 Reference value :  1.67000e-04
 Reference value :  1.67000e-04
 Reference value :  1.67000e-04
 Reference value :  1.67000e-04
 Reference value :  1.67000e-04
 Reference value :  1.67000e-04
 Reference value :  1.67000e-04
 Reference value :  1.67001e-04
 Reference value :  1.67001e-04
 Reference value :  1.67001e-04
 Reference value :  1.67002e-04
 Reference value :  1.67002e-04
 Reference value :  1.67003e-04
 Reference value :  1.67004e-04
 Reference value :  1.67004e-04
 Reference value :  1.67005e-04
 Reference value :  1.67006e-04
 Reference value :  1.67007e-04
 Reference value :  1.67008e-04
 Reference value :  1.67009e-04
 Reference value :  1.67010e-04
 Reference value :  1.67011e-04
 Reference value :  1.67012e-04
 Reference value :  1.67014e-04
 Reference value :  1.67015e-04
 Reference value :  1.67016e-04
 Reference value :  1.67019e-04
 Reference value :  1.67023e-04
 Reference value :  1.67032e-04
 Reference value :  1.67050e-04
 Reference value :  1.67083e-04
 Reference value :  1.67151e-04
 Reference value :  1.67250e-04
 Reference value :  1.67250e-04
 Reference value :  1.67250e-04
 Reference value :  1.67250e-04
 Reference value :  1.67250e-04
 Reference value :  1.67250e-04
 Reference value :  1.67250e-04
 Reference value :  1.67250e-04
 Reference value :  1.67250e-04
 Reference value :  1.67250e-04
 Reference value :  1.67250e-04
 Reference value :  1.67250e-04
 Reference value :  1.67250e-04
 Reference value :  1.67251e-04
 Reference value :  1.67251e-04
 Reference value :  1.67251e-04
 Reference value :  1.67252e-04
 Reference value :  1.67252e-04
 Reference value :  1.67253e-04
 Reference value :  1.67254e-04
 Reference value :  1.67255e-04
 Reference value :  1.67256e-04
 Reference value :  1.67256e-04
 Reference value :  1.67257e-04
 Reference value :  1.67258e-04
 Reference value :  1.67259e-04
 Reference value :  1.67260e-04
 Reference value :  1.67262e-04
 Reference value :  1.67263e-04
 Reference value :  1.67265e-04
 Reference value :  1.67269e-04
 Reference value :  1.67273e-04
 Reference value :  1.67282e-04
 Reference value :  1.67301e-04
 Reference value :  1.67336e-04
 Reference value :  1.67407e-04
 Reference value :  1.67500e-04
 Reference value :  1.67500e-04
 Reference value :  1.67500e-04
 Reference value :  1.67500e-04
 Reference value :  1.67500e-04
 Reference value :  1.67500e-04
 Reference value :  1.67500e-04
 Reference value :  1.67500e-04
 Reference value :  1.67500e-04
 Reference value :  1.67500e-04
 Reference value :  1.67500e-04
 Reference value :  1.67501e-04
 Reference value :  1.67501e-04
 Reference value :  1.67501e-04
 Reference value :  1.67502e-04
 Reference value :  1.67502e-04
 Reference value :  1.67503e-04
 Reference value :  1.67504e-04
 Reference value :  1.67504e-04
 Reference value :  1.67505e-04
 Reference value :  1.67506e-04
 Reference value :  1.67506e-04
 Reference value :  1.67507e-04
 Reference value :  1.67508e-04
 Reference value :  1.67508e-04
 Reference value :  1.67509e-04
 Reference value :  1.67510e-04
 Reference value :  1.67512e-04
 Reference value :  1.67513e-04
 Reference value :  1.67514e-04
 Reference value :  1.67515e-04
 Reference value :  1.67517e-04
 Reference value :  1.67518e-04
 Reference value :  1.67519e-04
 Reference value :  1.67520e-04
 Reference value :  1.67521e-04
 Reference value :  1.67522e-04
 Reference value :  1.67523e-04
 Reference value :  1.67524e-04
 Reference value :  1.67526e-04
 Reference value :  1.67528e-04
 Reference value :  1.67531e-04
 Reference value :  1.67534e-04
 Reference value :  1.67537e-04
 Reference value :  1.67539e-04
 Reference value :  1.67541e-04
 Reference value :  1.67543e-04
 Reference value :  1.67545e-04
 Reference value :  1.67549e-04
 Reference value :  1.67554e-04
 Reference value :  1.67561e-04
 Reference value :  1.67571e-04
 Reference value :  1.67586e-04
 Reference value :  1.67609e-04
 Reference value :  1.67645e-04
 Reference value :  1.67707e-04
 Reference value :  1.67750e-04
 Reference value :  1.67750e-04
 Reference value :  1.67750e-04
 Reference value :  1.67750e-04
 Reference value :  1.67750e-04
 Reference value :  1.67750e-04
 Reference value :  1.67750e-04
 Reference value :  1.67750e-04
 Reference value :  1.67750e-04
 Reference value :  1.67750e-04
 Reference value :  1.67750e-04
 Reference value :  1.67750e-04
 Reference value :  1.67750e-04
 Reference value :  1.67751e-04
 Reference value :  1.67751e-04
 Reference value :  1.67751e-04
 Reference value :  1.67752e-04
 Reference value :  1.67752e-04
 Reference value :  1.67753e-04
 Reference value :  1.67754e-04
 Reference value :  1.67755e-04
 Reference value :  1.67756e-04
 Reference value :  1.67756e-04
 Reference value :  1.67757e-04
 Reference value :  1.67759e-04
 Reference value :  1.67760e-04
 Reference value :  1.67762e-04
 Reference value :  1.67765e-04
 Reference value :  1.67770e-04
 Reference value :  1.67779e-04
 Reference value :  1.67793e-04
 Reference value :  1.67820e-04
 Reference value :  1.67866e-04
 Reference value :  1.67948e-04
 Reference value :  1.68000e-04
 Reference value :  1.68000e-04
 Reference value :  1.68000e-04
 Reference value :  1.68000e-04
 Reference value :  1.68000e-04
 Reference value :  1.68000e-04
 Reference value :  1.68000e-04
 Reference value :  1.68000e-04
 Reference value :  1.68000e-04
 Reference value :  1.68000e-04
 Reference value :  1.68000e-04
 Reference value :  1.68001e-04
 Reference value :  1.68001e-04
 Reference value :  1.68001e-04
 Reference value :  1.68002e-04
 Reference value :  1.68002e-04
 Reference value :  1.68003e-04
 Reference value :  1.68004e-04
 Reference value :  1.68004e-04
 Reference value :  1.68005e-04
 Reference value :  1.68006e-04
 Reference value :  1.68007e-04
 Reference value :  1.68008e-04
 Reference value :  1.68009e-04
 Reference value :  1.68010e-04
 Reference value :  1.68012e-04
 Reference value :  1.68013e-04
 Reference value :  1.68014e-04
 Reference value :  1.68015e-04
 Reference value :  1.68017e-04
 Reference value :  1.68020e-04
 Reference value :  1.68024e-04
 Reference value :  1.68032e-04
 Reference value :  1.68047e-04
 Reference value :  1.68072e-04
 Reference value :  1.68122e-04
 Reference value :  1.68211e-04
 Reference value :  1.68250e-04
 Reference value :  1.68250e-04
 Reference value :  1.68250e-04
 Reference value :  1.68250e-04
 Reference value :  1.68250e-04
 Reference value :  1.68250e-04
 Reference value :  1.68250e-04
 Reference value :  1.68250e-04
 Reference value :  1.68250e-04
 Reference value :  1.68250e-04
 Reference value :  1.68250e-04
 Reference value :  1.68250e-04
 Reference value :  1.68250e-04
 Reference value :  1.68251e-04
 Reference value :  1.68251e-04
 Reference value :  1.68251e-04
 Reference value :  1.68252e-04
 Reference value :  1.68252e-04
 Reference value :  1.68253e-04
 Reference value :  1.68254e-04
 Reference value :  1.68255e-04
 Reference value :  1.68256e-04
 Reference value :  1.68256e-04
 Reference value :  1.68257e-04
 Reference value :  1.68258e-04
 Reference value :  1.68259e-04
 Reference value :  1.68261e-04
 Reference value :  1.68263e-04
 Reference value :  1.68267e-04
 Reference value :  1.68273e-04
 Reference value :  1.68285e-04
 Reference value :  1.68306e-04
 Reference value :  1.68348e-04
 Reference value :  1.68432e-04
 Reference value :  1.68500e-04
 Reference value :  1.68500e-04
 Reference value :  1.68500e-04
 Reference value :  1.68500e-04
 Reference value :  1.68500e-04
 Reference value :  1.68500e-04
 Reference value :  1.68500e-04
 Reference value :  1.68500e-04
 Reference value :  1.68500e-04
 Reference value :  1.68500e-04
 Reference value :  1.68500e-04
 Reference value :  1.68501e-04
 Reference value :  1.68501e-04
 Reference value :  1.68501e-04
 Reference value :  1.68502e-04
 Reference value :  1.68502e-04
 Reference value :  1.68503e-04
 Reference value :  1.68504e-04
 Reference value :  1.68504e-04
 Reference value :  1.68505e-04
 Reference value :  1.68506e-04
 Reference value :  1.68507e-04
 Reference value :  1.68507e-04
 Reference value :  1.68508e-04
 Reference value :  1.68509e-04
 Reference value :  1.68510e-04
 Reference value :  1.68511e-04
 Reference value :  1.68514e-04
 Reference value :  1.68516e-04
 Reference value :  1.68518e-04
 Reference value :  1.68520e-04
 Reference value :  1.68521e-04
 Reference value :  1.68523e-04
 Reference value :  1.68524e-04
 Reference value :  1.68526e-04
 Reference value :  1.68528e-04
 Reference value :  1.68530e-04
 Reference value :  1.68533e-04
 Reference value :  1.68540e-04
 Reference value :  1.68547e-04
 Reference value :  1.68556e-04
 Reference value :  1.68571e-04
 Reference value :  1.68587e-04
 Reference value :  1.68608e-04
 Reference value :  1.68631e-04
 Reference value :  1.68647e-04
 Reference value :  1.68663e-04
 Reference value :  1.68688e-04
 Reference value :  1.68715e-04
 Reference value :  1.68750e-04
 Reference value :  1.68750e-04
 Reference value :  1.68750e-04
 Reference value :  1.68750e-04
 Reference value :  1.68750e-04
 Reference value :  1.68750e-04
 Reference value :  1.68750e-04
 Reference value :  1.68750e-04
 Reference value :  1.68750e-04
 Reference value :  1.68750e-04
 Reference value :  1.68750e-04
 Reference value :  1.68750e-04
 Reference value :  1.68750e-04
 Reference value :  1.68751e-04
 Reference value :  1.68751e-04
 Reference value :  1.68751e-04
 Reference value :  1.68752e-04
 Reference value :  1.68752e-04
 Reference value :  1.68753e-04
 Reference value :  1.68754e-04
 Reference value :  1.68755e-04
 Reference value :  1.68755e-04
 Reference value :  1.68756e-04
 Reference value :  1.68757e-04
 Reference value :  1.68758e-04
 Reference value :  1.68759e-04
 Reference value :  1.68761e-04
 Reference value :  1.68764e-04
 Reference value :  1.68767e-04
 Reference value :  1.68774e-04
 Reference value :  1.68788e-04
 Reference value :  1.68811e-04
 Reference value :  1.68857e-04
 Reference value :  1.68943e-04
 Reference value :  1.69000e-04
 Reference value :  1.69000e-04
 Reference value :  1.69000e-04
 Reference value :  1.69000e-04
 Reference value :  1.69000e-04
 Reference value :  1.69000e-04
 Reference value :  1.69000e-04
 Reference value :  1.69000e-04
 Reference value :  1.69000e-04
 Reference value :  1.69000e-04
 Reference value :  1.69000e-04
 Reference value :  1.69001e-04
 Reference value :  1.69001e-04
 Reference value :  1.69001e-04
 Reference value :  1.69002e-04
 Reference value :  1.69002e-04
 Reference value :  1.69003e-04
 Reference value :  1.69004e-04
 Reference value :  1.69004e-04
 Reference value :  1.69005e-04
 Reference value :  1.69006e-04
 Reference value :  1.69007e-04
 Reference value :  1.69008e-04
 Reference value :  1.69009e-04
 Reference value :  1.69010e-04
 Reference value :  1.69012e-04
 Reference value :  1.69013e-04
 Reference value :  1.69014e-04
 Reference value :  1.69015e-04
 Reference value :  1.69016e-04
 Reference value :  1.69019e-04
 Reference value :  1.69024e-04
 Reference value :  1.69033e-04
 Reference value :  1.69052e-04
 Reference value :  1.69089e-04
 Reference value :  1.69163e-04
 Reference value :  1.69250e-04
 Reference value :  1.69250e-04
 Reference value :  1.69250e-04
 Reference value :  1.69250e-04
 Reference value :  1.69250e-04
 Reference value :  1.69250e-04
 Reference value :  1.69250e-04
 Reference value :  1.69250e-04
 Reference value :  1.69250e-04
 Reference value :  1.69250e-04
 Reference value :  1.69250e-04
 Reference value :  1.69250e-04
 Reference value :  1.69250e-04
 Reference value :  1.69251e-04
 Reference value :  1.69251e-04
 Reference value :  1.69251e-04
 Reference value :  1.69252e-04
 Reference value :  1.69252e-04
 Reference value :  1.69253e-04
 Reference value :  1.69254e-04
 Reference value :  1.69255e-04
 Reference value :  1.69255e-04
 Reference value :  1.69256e-04
 Reference value :  1.69257e-04
 Reference value :  1.69258e-04
 Reference value :  1.69259e-04
 Reference value :  1.69260e-04
 Reference value :  1.69261e-04
 Reference value :  1.69263e-04
 Reference value :  1.69265e-04
 Reference value :  1.69268e-04
 Reference value :  1.69272e-04
 Reference value :  1.69279e-04
 Reference value :  1.69292e-04
 Reference value :  1.69316e-04
 Reference value :  1.69364e-04
 Reference value :  1.69461e-04
 Reference value :  1.69500e-04
 Reference value :  1.69500e-04
 Reference value :  1.69500e-04
 Reference value :  1.69500e-04
 Reference value :  1.69500e-04
 Reference value :  1.69500e-04
 Reference value :  1.69500e-04
 Reference value :  1.69500e-04
 Reference value :  1.69500e-04
 Reference value :  1.69500e-04
 Reference value :  1.69500e-04
 Reference value :  1.69501e-04
 Reference value :  1.69501e-04
 Reference value :  1.69501e-04
 Reference value :  1.69502e-04
 Reference value :  1.69502e-04
 Reference value :  1.69503e-04
 Reference value :  1.69504e-04
 Reference value :  1.69504e-04
 Reference value :  1.69505e-04
 Reference value :  1.69506e-04
 Reference value :  1.69506e-04
 Reference value :  1.69507e-04
 Reference value :  1.69508e-04
 Reference value :  1.69508e-04
 Reference value :  1.69509e-04
 Reference value :  1.69510e-04
 Reference value :  1.69512e-04
 Reference value :  1.69513e-04
 Reference value :  1.69514e-04
 Reference value :  1.69516e-04
 Reference value :  1.69517e-04
 Reference value :  1.69519e-04
 Reference value :  1.69521e-04
 Reference value :  1.69523e-04
 Reference value :  1.69526e-04
 Reference value :  1.69529e-04
 Reference value :  1.69533e-04
 Reference value :  1.69538e-04
 Reference value :  1.69542e-04
 Reference value :  1.69546e-04
 Reference value :  1.69550e-04
 Reference value :  1.69555e-04
 Reference value :  1.69561e-04
 Reference value :  1.69573e-04
 Reference value :  1.69588e-04
 Reference value :  1.69614e-04
 Reference value :  1.69653e-04
 Reference value :  1.69713e-04
 Reference value :  1.69750e-04
 Reference value :  1.69750e-04
 Reference value :  1.69750e-04
 Reference value :  1.69750e-04
 Reference value :  1.69750e-04
 Reference value :  1.69750e-04
 Reference value :  1.69750e-04
 Reference value :  1.69750e-04
 Reference value :  1.69750e-04
 Reference value :  1.69750e-04
 Reference value :  1.69750e-04
 Reference value :  1.69750e-04
 Reference value :  1.69750e-04
 Reference value :  1.69751e-04
 Reference value :  1.69751e-04
 Reference value :  1.69751e-04
 Reference value :  1.69752e-04
 Reference value :  1.69752e-04
 Reference value :  1.69753e-04
 Reference value :  1.69754e-04
 Reference value :  1.69755e-04
 Reference value :  1.69756e-04
 Reference value :  1.69757e-04
 Reference value :  1.69759e-04
 Reference value :  1.69761e-04
 Reference value :  1.69763e-04
 Reference value :  1.69766e-04
 Reference value :  1.69771e-04
 Reference value :  1.69780e-04
 Reference value :  1.69798e-04
 Reference value :  1.69835e-04
 Reference value :  1.69909e-04
 Reference value :  1.70000e-04
No. of Data Rows : 26841
ngspice-44 done
