
Note: Compatibility modes selected: hs a


Circuit: ** sch_path: /home/samantha/cace/sar-adc-using-sky130-pdk/runs/run_2025-09-05_16-28-34/parameters/power/run_02/power_consumption.sch

option SCALE: Scale is set to 1e-06 for instance and model parameters
option SCALE: Scale is set to 1e-06 for instance and model parameters
option SCALE: Scale is set to 1e-06 for instance and model parameters
option SCALE: Scale is set to 1e-06 for instance and model parameters
Doing analysis at TEMP = 27.000000 and TNOM = 27.000000

Using KLU as Direct Linear Solver
 Reference value :  0.00000e+00
 Reference value :  1.00000e-12
 Reference value :  4.00000e-12
 Reference value :  1.60000e-11
 Reference value :  3.20000e-11
 Reference value :  6.40000e-11
 Reference value :  1.00000e-10
 Reference value :  1.19200e-10
 Reference value :  1.96000e-10
 Reference value :  2.98400e-10
 Reference value :  4.37166e-10
 Reference value :  7.14699e-10
 Reference value :  1.04529e-09
 Reference value :  1.79865e-09
 Reference value :  2.23918e-09
 Reference value :  2.63983e-09
 Reference value :  3.02231e-09
 Reference value :  3.48356e-09
 Reference value :  3.97663e-09
 Reference value :  4.51318e-09
 Reference value :  5.02604e-09
 Reference value :  5.57294e-09
 Reference value :  6.38774e-09
 Reference value :  7.99848e-09
 Reference value :  9.86556e-09
 Reference value :  1.10890e-08
 Reference value :  1.22284e-08
 Reference value :  1.29781e-08
 Reference value :  1.37849e-08
 Reference value :  1.45668e-08
 Reference value :  1.54215e-08
 Reference value :  1.77464e-08
 Reference value :  2.20442e-08
 Reference value :  3.15169e-08
 Reference value :  4.99392e-08
 Reference value :  5.65725e-08
 Reference value :  6.73737e-08
 Reference value :  7.83233e-08
 Reference value :  1.07565e-07
 Reference value :  1.94204e-07
 Reference value :  2.50110e-07
 Reference value :  2.50170e-07
 Reference value :  2.50207e-07
 Reference value :  2.50250e-07
 Reference value :  2.50379e-07
 Reference value :  2.50523e-07
 Reference value :  2.50929e-07
 Reference value :  2.51245e-07
 Reference value :  2.51664e-07
 Reference value :  2.52719e-07
 Reference value :  2.53507e-07
 Reference value :  2.54033e-07
 Reference value :  2.55310e-07
 Reference value :  2.56940e-07
 Reference value :  2.59539e-07
 Reference value :  2.65411e-07
 Reference value :  2.83825e-07
 Reference value :  3.42375e-07
 Reference value :  5.00000e-07
 Reference value :  5.00030e-07
 Reference value :  5.00100e-07
 Reference value :  5.00123e-07
 Reference value :  5.00217e-07
 Reference value :  5.00494e-07
 Reference value :  5.00813e-07
 Reference value :  5.01779e-07
 Reference value :  5.02210e-07
 Reference value :  5.03304e-07
 Reference value :  5.03956e-07
 Reference value :  5.05650e-07
 Reference value :  5.06715e-07
 Reference value :  5.08204e-07
 Reference value :  5.09380e-07
 Reference value :  5.11861e-07
 Reference value :  5.13273e-07
 Reference value :  5.15007e-07
 Reference value :  5.16709e-07
 Reference value :  5.20870e-07
 Reference value :  5.28666e-07
 Reference value :  5.46009e-07
 Reference value :  5.65127e-07
 Reference value :  6.69673e-07
 Reference value :  7.50110e-07
 Reference value :  7.50170e-07
 Reference value :  7.50208e-07
 Reference value :  7.50254e-07
 Reference value :  7.50440e-07
 Reference value :  7.50795e-07
 Reference value :  7.51193e-07
 Reference value :  7.51624e-07
 Reference value :  7.52670e-07
 Reference value :  7.53410e-07
 Reference value :  7.53933e-07
 Reference value :  7.54523e-07
 Reference value :  7.55074e-07
 Reference value :  7.56510e-07
 Reference value :  7.58279e-07
 Reference value :  7.60568e-07
 Reference value :  7.64455e-07
 Reference value :  7.73764e-07
 Reference value :  8.01248e-07
 Reference value :  9.03283e-07
 Reference value :  1.00001e-06
 Reference value :  1.00007e-06
 Reference value :  1.00011e-06
 Reference value :  1.00015e-06
 Reference value :  1.00033e-06
 Reference value :  1.00081e-06
 Reference value :  1.00127e-06
 Reference value :  1.00174e-06
 Reference value :  1.00218e-06
 Reference value :  1.00333e-06
 Reference value :  1.00443e-06
 Reference value :  1.00501e-06
 Reference value :  1.00556e-06
 Reference value :  1.00618e-06
 Reference value :  1.00763e-06
 Reference value :  1.00976e-06
 Reference value :  1.01078e-06
 Reference value :  1.01183e-06
 Reference value :  1.01299e-06
 Reference value :  1.01382e-06
 Reference value :  1.01559e-06
 Reference value :  1.01660e-06
 Reference value :  1.01757e-06
 Reference value :  1.01877e-06
 Reference value :  1.02182e-06
 Reference value :  1.02811e-06
 Reference value :  1.04998e-06
 Reference value :  1.12556e-06
 Reference value :  1.25010e-06
 Reference value :  1.25013e-06
 Reference value :  1.25020e-06
 Reference value :  1.25022e-06
 Reference value :  1.25032e-06
 Reference value :  1.25058e-06
 Reference value :  1.25122e-06
 Reference value :  1.25164e-06
 Reference value :  1.25212e-06
 Reference value :  1.25347e-06
 Reference value :  1.25398e-06
 Reference value :  1.25528e-06
 Reference value :  1.25688e-06
 Reference value :  1.26001e-06
 Reference value :  1.26773e-06
 Reference value :  1.29639e-06
 Reference value :  1.41104e-06
 Reference value :  1.50001e-06
 Reference value :  1.50007e-06
 Reference value :  1.50011e-06
 Reference value :  1.50015e-06
 Reference value :  1.50033e-06
 Reference value :  1.50081e-06
 Reference value :  1.50132e-06
 Reference value :  1.50220e-06
 Reference value :  1.50328e-06
 Reference value :  1.50394e-06
 Reference value :  1.50469e-06
 Reference value :  1.50547e-06
 Reference value :  1.50654e-06
 Reference value :  1.50733e-06
 Reference value :  1.50822e-06
 Reference value :  1.50909e-06
 Reference value :  1.51115e-06
 Reference value :  1.51487e-06
 Reference value :  1.52516e-06
 Reference value :  1.55715e-06
 Reference value :  1.67813e-06
 Reference value :  1.75011e-06
 Reference value :  1.75017e-06
 Reference value :  1.75021e-06
 Reference value :  1.75026e-06
 Reference value :  1.75044e-06
 Reference value :  1.75080e-06
 Reference value :  1.75164e-06
 Reference value :  1.75269e-06
 Reference value :  1.75346e-06
 Reference value :  1.75398e-06
 Reference value :  1.75513e-06
 Reference value :  1.75575e-06
 Reference value :  1.75659e-06
 Reference value :  1.75750e-06
 Reference value :  1.75934e-06
 Reference value :  1.76061e-06
 Reference value :  1.76457e-06
 Reference value :  1.77451e-06
 Reference value :  1.80671e-06
 Reference value :  1.92895e-06
 Reference value :  2.00001e-06
 Reference value :  2.00007e-06
 Reference value :  2.00011e-06
 Reference value :  2.00015e-06
 Reference value :  2.00033e-06
 Reference value :  2.00049e-06
 Reference value :  2.00127e-06
 Reference value :  2.00218e-06
 Reference value :  2.00333e-06
 Reference value :  2.00443e-06
 Reference value :  2.00501e-06
 Reference value :  2.00556e-06
 Reference value :  2.00618e-06
 Reference value :  2.00763e-06
 Reference value :  2.00976e-06
 Reference value :  2.01078e-06
 Reference value :  2.01182e-06
 Reference value :  2.01299e-06
 Reference value :  2.01381e-06
 Reference value :  2.01559e-06
 Reference value :  2.01757e-06
 Reference value :  2.01876e-06
 Reference value :  2.02181e-06
 Reference value :  2.02808e-06
 Reference value :  2.04977e-06
 Reference value :  2.10689e-06
 Reference value :  2.16299e-06
 Reference value :  2.18244e-06
 Reference value :  2.21948e-06
 Reference value :  2.25010e-06
 Reference value :  2.25013e-06
 Reference value :  2.25020e-06
 Reference value :  2.25022e-06
 Reference value :  2.25032e-06
 Reference value :  2.25057e-06
 Reference value :  2.25119e-06
 Reference value :  2.25162e-06
 Reference value :  2.25267e-06
 Reference value :  2.25342e-06
 Reference value :  2.25395e-06
 Reference value :  2.25515e-06
 Reference value :  2.25674e-06
 Reference value :  2.25952e-06
 Reference value :  2.26631e-06
 Reference value :  2.28337e-06
 Reference value :  2.28954e-06
 Reference value :  2.30133e-06
 Reference value :  2.31326e-06
 Reference value :  2.33145e-06
 Reference value :  2.34522e-06
 Reference value :  2.36669e-06
 Reference value :  2.37724e-06
 Reference value :  2.40955e-06
 Reference value :  2.48942e-06
 Reference value :  2.50000e-06
 Reference value :  2.50001e-06
 Reference value :  2.50007e-06
 Reference value :  2.50012e-06
 Reference value :  2.50033e-06
 Reference value :  2.50049e-06
 Reference value :  2.50081e-06
 Reference value :  2.50178e-06
 Reference value :  2.50220e-06
 Reference value :  2.50328e-06
 Reference value :  2.50394e-06
 Reference value :  2.50548e-06
 Reference value :  2.50654e-06
 Reference value :  2.50734e-06
 Reference value :  2.50822e-06
 Reference value :  2.50908e-06
 Reference value :  2.51115e-06
 Reference value :  2.51486e-06
 Reference value :  2.52503e-06
 Reference value :  2.55637e-06
 Reference value :  2.67463e-06
 Reference value :  2.75010e-06
 Reference value :  2.75011e-06
 Reference value :  2.75013e-06
 Reference value :  2.75017e-06
 Reference value :  2.75020e-06
 Reference value :  2.75022e-06
 Reference value :  2.75026e-06
 Reference value :  2.75032e-06
 Reference value :  2.75058e-06
 Reference value :  2.75122e-06
 Reference value :  2.75164e-06
 Reference value :  2.75269e-06
 Reference value :  2.75346e-06
 Reference value :  2.75398e-06
 Reference value :  2.75457e-06
 Reference value :  2.75513e-06
 Reference value :  2.75659e-06
 Reference value :  2.75840e-06
 Reference value :  2.76061e-06
 Reference value :  2.76457e-06
 Reference value :  2.77453e-06
 Reference value :  2.80699e-06
 Reference value :  2.93040e-06
 Reference value :  3.00001e-06
 Reference value :  3.00007e-06
 Reference value :  3.00011e-06
 Reference value :  3.00015e-06
 Reference value :  3.00033e-06
 Reference value :  3.00081e-06
 Reference value :  3.00127e-06
 Reference value :  3.00218e-06
 Reference value :  3.00333e-06
 Reference value :  3.00443e-06
 Reference value :  3.00556e-06
 Reference value :  3.00618e-06
 Reference value :  3.00763e-06
 Reference value :  3.00977e-06
 Reference value :  3.01078e-06
 Reference value :  3.01183e-06
 Reference value :  3.01299e-06
 Reference value :  3.01382e-06
 Reference value :  3.01559e-06
 Reference value :  3.01661e-06
 Reference value :  3.01758e-06
 Reference value :  3.01879e-06
 Reference value :  3.02186e-06
 Reference value :  3.02825e-06
 Reference value :  3.03234e-06
 Reference value :  3.03624e-06
 Reference value :  3.04056e-06
 Reference value :  3.04328e-06
 Reference value :  3.04773e-06
 Reference value :  3.05700e-06
 Reference value :  3.06132e-06
 Reference value :  3.07131e-06
 Reference value :  3.08905e-06
 Reference value :  3.13207e-06
 Reference value :  3.19272e-06
 Reference value :  3.25011e-06
 Reference value :  3.25017e-06
 Reference value :  3.25021e-06
 Reference value :  3.25026e-06
 Reference value :  3.25044e-06
 Reference value :  3.25080e-06
 Reference value :  3.25164e-06
 Reference value :  3.25269e-06
 Reference value :  3.25347e-06
 Reference value :  3.25400e-06
 Reference value :  3.25460e-06
 Reference value :  3.25524e-06
 Reference value :  3.25682e-06
 Reference value :  3.25982e-06
 Reference value :  3.26716e-06
 Reference value :  3.29438e-06
 Reference value :  3.40325e-06
 Reference value :  3.50001e-06
 Reference value :  3.50007e-06
 Reference value :  3.50011e-06
 Reference value :  3.50015e-06
 Reference value :  3.50033e-06
 Reference value :  3.50081e-06
 Reference value :  3.50127e-06
 Reference value :  3.50217e-06
 Reference value :  3.50267e-06
 Reference value :  3.50322e-06
 Reference value :  3.50380e-06
 Reference value :  3.50440e-06
 Reference value :  3.50614e-06
 Reference value :  3.50716e-06
 Reference value :  3.50815e-06
 Reference value :  3.51015e-06
 Reference value :  3.51124e-06
 Reference value :  3.51498e-06
 Reference value :  3.52628e-06
 Reference value :  3.56551e-06
 Reference value :  3.70395e-06
 Reference value :  3.75011e-06
 Reference value :  3.75017e-06
 Reference value :  3.75021e-06
 Reference value :  3.75026e-06
 Reference value :  3.75044e-06
 Reference value :  3.75058e-06
 Reference value :  3.75122e-06
 Reference value :  3.75164e-06
 Reference value :  3.75269e-06
 Reference value :  3.75347e-06
 Reference value :  3.75399e-06
 Reference value :  3.75515e-06
 Reference value :  3.75578e-06
 Reference value :  3.75662e-06
 Reference value :  3.75923e-06
 Reference value :  3.76150e-06
 Reference value :  3.77340e-06
 Reference value :  3.82100e-06
 Reference value :  4.00000e-06
 Reference value :  4.00003e-06
 Reference value :  4.00007e-06
 Reference value :  4.00010e-06
 Reference value :  4.00012e-06
 Reference value :  4.00022e-06
 Reference value :  4.00049e-06
 Reference value :  4.00127e-06
 Reference value :  4.00174e-06
 Reference value :  4.00218e-06
 Reference value :  4.00267e-06
 Reference value :  4.00332e-06
 Reference value :  4.00392e-06
 Reference value :  4.00443e-06
 Reference value :  4.00501e-06
 Reference value :  4.00556e-06
 Reference value :  4.00618e-06
 Reference value :  4.00682e-06
 Reference value :  4.00764e-06
 Reference value :  4.00867e-06
 Reference value :  4.01006e-06
 Reference value :  4.01153e-06
 Reference value :  4.01288e-06
 Reference value :  4.01394e-06
 Reference value :  4.01496e-06
 Reference value :  4.01605e-06
 Reference value :  4.01709e-06
 Reference value :  4.01819e-06
 Reference value :  4.01936e-06
 Reference value :  4.02104e-06
 Reference value :  4.02271e-06
 Reference value :  4.02605e-06
 Reference value :  4.03155e-06
 Reference value :  4.04084e-06
 Reference value :  4.05686e-06
 Reference value :  4.07813e-06
 Reference value :  4.10805e-06
 Reference value :  4.14518e-06
 Reference value :  4.18086e-06
 Reference value :  4.21974e-06
 Reference value :  4.25010e-06
 Reference value :  4.25011e-06
 Reference value :  4.25013e-06
 Reference value :  4.25017e-06
 Reference value :  4.25020e-06
 Reference value :  4.25021e-06
 Reference value :  4.25022e-06
 Reference value :  4.25025e-06
 Reference value :  4.25031e-06
 Reference value :  4.25038e-06
 Reference value :  4.25051e-06
 Reference value :  4.25068e-06
 Reference value :  4.25092e-06
 Reference value :  4.25132e-06
 Reference value :  4.25176e-06
 Reference value :  4.25224e-06
 Reference value :  4.25289e-06
 Reference value :  4.25376e-06
 Reference value :  4.25432e-06
 Reference value :  4.25497e-06
 Reference value :  4.25575e-06
 Reference value :  4.25662e-06
 Reference value :  4.25751e-06
 Reference value :  4.25913e-06
 Reference value :  4.26133e-06
 Reference value :  4.27265e-06
 Reference value :  4.30629e-06
 Reference value :  4.40880e-06
 Reference value :  4.50000e-06
 Reference value :  4.50001e-06
 Reference value :  4.50003e-06
 Reference value :  4.50007e-06
 Reference value :  4.50011e-06
 Reference value :  4.50015e-06
 Reference value :  4.50034e-06
 Reference value :  4.50095e-06
 Reference value :  4.50158e-06
 Reference value :  4.50266e-06
 Reference value :  4.50377e-06
 Reference value :  4.50439e-06
 Reference value :  4.50515e-06
 Reference value :  4.50592e-06
 Reference value :  4.50709e-06
 Reference value :  4.50798e-06
 Reference value :  4.50993e-06
 Reference value :  4.51256e-06
 Reference value :  4.51774e-06
 Reference value :  4.53366e-06
 Reference value :  4.67654e-06
 Reference value :  4.75011e-06
 Reference value :  4.75017e-06
 Reference value :  4.75021e-06
 Reference value :  4.75025e-06
 Reference value :  4.75038e-06
 Reference value :  4.75068e-06
 Reference value :  4.75132e-06
 Reference value :  4.75176e-06
 Reference value :  4.75289e-06
 Reference value :  4.75376e-06
 Reference value :  4.75433e-06
 Reference value :  4.75564e-06
 Reference value :  4.75634e-06
 Reference value :  4.75732e-06
 Reference value :  4.76041e-06
 Reference value :  4.76910e-06
 Reference value :  4.79661e-06
 Reference value :  4.88654e-06
 Reference value :  5.00000e-06
 Reference value :  5.00003e-06
 Reference value :  5.00010e-06
 Reference value :  5.00012e-06
 Reference value :  5.00022e-06
 Reference value :  5.00059e-06
 Reference value :  5.00158e-06
 Reference value :  5.00265e-06
 Reference value :  5.00379e-06
 Reference value :  5.00445e-06
 Reference value :  5.00501e-06
 Reference value :  5.00625e-06
 Reference value :  5.00780e-06
 Reference value :  5.01024e-06
 Reference value :  5.01167e-06
 Reference value :  5.01297e-06
 Reference value :  5.01399e-06
 Reference value :  5.01605e-06
 Reference value :  5.01709e-06
 Reference value :  5.01937e-06
 Reference value :  5.02270e-06
 Reference value :  5.03162e-06
 Reference value :  5.05753e-06
 Reference value :  5.07257e-06
 Reference value :  5.08763e-06
 Reference value :  5.13499e-06
 Reference value :  5.16136e-06
 Reference value :  5.24838e-06
 Reference value :  5.25011e-06
 Reference value :  5.25017e-06
 Reference value :  5.25021e-06
 Reference value :  5.25025e-06
 Reference value :  5.25038e-06
 Reference value :  5.25067e-06
 Reference value :  5.25129e-06
 Reference value :  5.25175e-06
 Reference value :  5.25286e-06
 Reference value :  5.25372e-06
 Reference value :  5.25429e-06
 Reference value :  5.25575e-06
 Reference value :  5.25751e-06
 Reference value :  5.26132e-06
 Reference value :  5.27260e-06
 Reference value :  5.30620e-06
 Reference value :  5.40950e-06
 Reference value :  5.50001e-06
 Reference value :  5.50007e-06
 Reference value :  5.50011e-06
 Reference value :  5.50015e-06
 Reference value :  5.50034e-06
 Reference value :  5.50059e-06
 Reference value :  5.50158e-06
 Reference value :  5.50266e-06
 Reference value :  5.50377e-06
 Reference value :  5.50439e-06
 Reference value :  5.50514e-06
 Reference value :  5.50591e-06
 Reference value :  5.50796e-06
 Reference value :  5.50892e-06
 Reference value :  5.50990e-06
 Reference value :  5.51096e-06
 Reference value :  5.51421e-06
 Reference value :  5.52302e-06
 Reference value :  5.58918e-06
 Reference value :  5.75010e-06
 Reference value :  5.75013e-06
 Reference value :  5.75020e-06
 Reference value :  5.75022e-06
 Reference value :  5.75031e-06
 Reference value :  5.75051e-06
 Reference value :  5.75092e-06
 Reference value :  5.75176e-06
 Reference value :  5.75289e-06
 Reference value :  5.75376e-06
 Reference value :  5.75433e-06
 Reference value :  5.75565e-06
 Reference value :  5.75732e-06
 Reference value :  5.76042e-06
 Reference value :  5.76914e-06
 Reference value :  5.79666e-06
 Reference value :  5.99147e-06
 Reference value :  6.00001e-06
 Reference value :  6.00007e-06
 Reference value :  6.00011e-06
 Reference value :  6.00015e-06
 Reference value :  6.00034e-06
 Reference value :  6.00095e-06
 Reference value :  6.00158e-06
 Reference value :  6.00265e-06
 Reference value :  6.00379e-06
 Reference value :  6.00445e-06
 Reference value :  6.00501e-06
 Reference value :  6.00625e-06
 Reference value :  6.00780e-06
 Reference value :  6.00882e-06
 Reference value :  6.01024e-06
 Reference value :  6.01167e-06
 Reference value :  6.01297e-06
 Reference value :  6.01399e-06
 Reference value :  6.01496e-06
 Reference value :  6.01605e-06
 Reference value :  6.01710e-06
 Reference value :  6.01819e-06
 Reference value :  6.01937e-06
 Reference value :  6.02271e-06
 Reference value :  6.03047e-06
 Reference value :  6.04126e-06
 Reference value :  6.04533e-06
 Reference value :  6.05382e-06
 Reference value :  6.06491e-06
 Reference value :  6.07694e-06
 Reference value :  6.10209e-06
 Reference value :  6.15870e-06
 Reference value :  6.25010e-06
 Reference value :  6.25013e-06
 Reference value :  6.25020e-06
 Reference value :  6.25022e-06
 Reference value :  6.25031e-06
 Reference value :  6.25051e-06
 Reference value :  6.25066e-06
 Reference value :  6.25129e-06
 Reference value :  6.25220e-06
 Reference value :  6.25284e-06
 Reference value :  6.25369e-06
 Reference value :  6.25424e-06
 Reference value :  6.25562e-06
 Reference value :  6.25735e-06
 Reference value :  6.26109e-06
 Reference value :  6.27179e-06
 Reference value :  6.30484e-06
 Reference value :  6.41073e-06
 Reference value :  6.50001e-06
 Reference value :  6.50007e-06
 Reference value :  6.50011e-06
 Reference value :  6.50015e-06
 Reference value :  6.50034e-06
 Reference value :  6.50095e-06
 Reference value :  6.50158e-06
 Reference value :  6.50263e-06
 Reference value :  6.50375e-06
 Reference value :  6.50512e-06
 Reference value :  6.50604e-06
 Reference value :  6.50709e-06
 Reference value :  6.50798e-06
 Reference value :  6.50992e-06
 Reference value :  6.51097e-06
 Reference value :  6.51422e-06
 Reference value :  6.52308e-06
 Reference value :  6.55180e-06
 Reference value :  6.75010e-06
 Reference value :  6.75013e-06
 Reference value :  6.75020e-06
 Reference value :  6.75022e-06
 Reference value :  6.75031e-06
 Reference value :  6.75051e-06
 Reference value :  6.75092e-06
 Reference value :  6.75176e-06
 Reference value :  6.75289e-06
 Reference value :  6.75377e-06
 Reference value :  6.75433e-06
 Reference value :  6.75565e-06
 Reference value :  6.75635e-06
 Reference value :  6.75718e-06
 Reference value :  6.75814e-06
 Reference value :  6.76031e-06
 Reference value :  6.76190e-06
 Reference value :  6.76362e-06
 Reference value :  6.77259e-06
 Reference value :  6.79775e-06
 Reference value :  6.87038e-06
 Reference value :  7.00000e-06
 Reference value :  7.00003e-06
 Reference value :  7.00010e-06
 Reference value :  7.00012e-06
 Reference value :  7.00022e-06
 Reference value :  7.00059e-06
 Reference value :  7.00158e-06
 Reference value :  7.00265e-06
 Reference value :  7.00378e-06
 Reference value :  7.00443e-06
 Reference value :  7.00494e-06
 Reference value :  7.00552e-06
 Reference value :  7.00605e-06
 Reference value :  7.00753e-06
 Reference value :  7.00962e-06
 Reference value :  7.01053e-06
 Reference value :  7.01153e-06
 Reference value :  7.01256e-06
 Reference value :  7.01366e-06
 Reference value :  7.01576e-06
 Reference value :  7.01689e-06
 Reference value :  7.01800e-06
 Reference value :  7.02071e-06
 Reference value :  7.02572e-06
 Reference value :  7.03512e-06
 Reference value :  7.06955e-06
 Reference value :  7.16878e-06
 Reference value :  7.25011e-06
 Reference value :  7.25017e-06
 Reference value :  7.25021e-06
 Reference value :  7.25025e-06
 Reference value :  7.25038e-06
 Reference value :  7.25066e-06
 Reference value :  7.25129e-06
 Reference value :  7.25173e-06
 Reference value :  7.25220e-06
 Reference value :  7.25283e-06
 Reference value :  7.25369e-06
 Reference value :  7.25426e-06
 Reference value :  7.25568e-06
 Reference value :  7.25652e-06
 Reference value :  7.25897e-06
 Reference value :  7.26489e-06
 Reference value :  7.30575e-06
 Reference value :  7.50000e-06
 Reference value :  7.50003e-06
 Reference value :  7.50010e-06
 Reference value :  7.50012e-06
 Reference value :  7.50022e-06
 Reference value :  7.50059e-06
 Reference value :  7.50158e-06
 Reference value :  7.50263e-06
 Reference value :  7.50317e-06
 Reference value :  7.50376e-06
 Reference value :  7.50441e-06
 Reference value :  7.50511e-06
 Reference value :  7.50602e-06
 Reference value :  7.50708e-06
 Reference value :  7.50796e-06
 Reference value :  7.50891e-06
 Reference value :  7.50989e-06
 Reference value :  7.51093e-06
 Reference value :  7.51415e-06
 Reference value :  7.52269e-06
 Reference value :  7.54950e-06
 Reference value :  7.65625e-06
 Reference value :  7.75011e-06
 Reference value :  7.75017e-06
 Reference value :  7.75021e-06
 Reference value :  7.75025e-06
 Reference value :  7.75038e-06
 Reference value :  7.75068e-06
 Reference value :  7.75092e-06
 Reference value :  7.75132e-06
 Reference value :  7.75176e-06
 Reference value :  7.75224e-06
 Reference value :  7.75289e-06
 Reference value :  7.75377e-06
 Reference value :  7.75433e-06
 Reference value :  7.75497e-06
 Reference value :  7.75565e-06
 Reference value :  7.75635e-06
 Reference value :  7.75717e-06
 Reference value :  7.75813e-06
 Reference value :  7.75927e-06
 Reference value :  7.76189e-06
 Reference value :  7.76680e-06
 Reference value :  7.78124e-06
 Reference value :  7.82414e-06
 Reference value :  7.94970e-06
 Reference value :  8.00001e-06
 Reference value :  8.00007e-06
 Reference value :  8.00011e-06
 Reference value :  8.00015e-06
 Reference value :  8.00034e-06
 Reference value :  8.00059e-06
 Reference value :  8.00095e-06
 Reference value :  8.00158e-06
 Reference value :  8.00216e-06
 Reference value :  8.00265e-06
 Reference value :  8.00321e-06
 Reference value :  8.00377e-06
 Reference value :  8.00443e-06
 Reference value :  8.00494e-06
 Reference value :  8.00605e-06
 Reference value :  8.00664e-06
 Reference value :  8.00752e-06
 Reference value :  8.00834e-06
 Reference value :  8.00923e-06
 Reference value :  8.01011e-06
 Reference value :  8.01112e-06
 Reference value :  8.01225e-06
 Reference value :  8.01494e-06
 Reference value :  8.01591e-06
 Reference value :  8.01867e-06
 Reference value :  8.02538e-06
 Reference value :  8.04138e-06
 Reference value :  8.07457e-06
 Reference value :  8.09083e-06
 Reference value :  8.10699e-06
 Reference value :  8.12483e-06
 Reference value :  8.15731e-06
 Reference value :  8.17801e-06
 Reference value :  8.25010e-06
 Reference value :  8.25011e-06
 Reference value :  8.25017e-06
 Reference value :  8.25020e-06
 Reference value :  8.25021e-06
 Reference value :  8.25026e-06
 Reference value :  8.25032e-06
 Reference value :  8.25057e-06
 Reference value :  8.25114e-06
 Reference value :  8.25202e-06
 Reference value :  8.25258e-06
 Reference value :  8.25325e-06
 Reference value :  8.25421e-06
 Reference value :  8.25533e-06
 Reference value :  8.25638e-06
 Reference value :  8.25735e-06
 Reference value :  8.25886e-06
 Reference value :  8.26355e-06
 Reference value :  8.28173e-06
 Reference value :  8.35445e-06
 Reference value :  8.50000e-06
No. of Data Rows : 1262
ngspice-44 done
