
Note: Compatibility modes selected: hs a


Circuit: ** sch_path: /home/audrey/cace/sar-adc-using-sky130-pdk/runs/run_2025-09-01_16-40-40/parameters/power/run_05/power_consumption.sch

option SCALE: Scale is set to 1e-06 for instance and model parameters
option SCALE: Scale is set to 1e-06 for instance and model parameters
option SCALE: Scale is set to 1e-06 for instance and model parameters
option SCALE: Scale is set to 1e-06 for instance and model parameters
Doing analysis at TEMP = 27.000000 and TNOM = 27.000000

Using KLU as Direct Linear Solver
 Reference value :  0.00000e+00
 Reference value :  4.00000e-12
 Reference value :  3.20000e-11
 Reference value :  1.00000e-10
 Reference value :  1.44800e-10
 Reference value :  4.48125e-10
 Reference value :  9.88271e-10
 Reference value :  1.41206e-09
 Reference value :  1.80183e-09
 Reference value :  2.66569e-09
 Reference value :  3.60739e-09
 Reference value :  5.27787e-09
 Reference value :  6.67484e-09
 Reference value :  7.43797e-09
 Reference value :  1.01840e-08
 Reference value :  1.12974e-08
 Reference value :  1.21111e-08
 Reference value :  1.35934e-08
 Reference value :  1.67532e-08
 Reference value :  2.05379e-08
 Reference value :  2.39684e-08
 Reference value :  2.72253e-08
 Reference value :  3.46459e-08
 Reference value :  5.21759e-08
 Reference value :  1.57463e-07
 Reference value :  2.00978e-07
 Reference value :  2.43191e-07
 Reference value :  2.50110e-07
 Reference value :  2.50200e-07
 Reference value :  2.50220e-07
 Reference value :  2.50393e-07
 Reference value :  2.50933e-07
 Reference value :  2.51733e-07
 Reference value :  2.53488e-07
 Reference value :  2.54586e-07
 Reference value :  2.58135e-07
 Reference value :  2.82068e-07
 Reference value :  4.87433e-07
 Reference value :  5.00030e-07
 Reference value :  5.00108e-07
 Reference value :  5.00518e-07
 Reference value :  5.01309e-07
 Reference value :  5.02206e-07
 Reference value :  5.03199e-07
 Reference value :  5.04411e-07
 Reference value :  5.06090e-07
 Reference value :  5.07260e-07
 Reference value :  5.09711e-07
 Reference value :  5.12588e-07
 Reference value :  5.15938e-07
 Reference value :  5.20179e-07
 Reference value :  5.38739e-07
 Reference value :  6.57568e-07
 Reference value :  7.50130e-07
 Reference value :  7.50200e-07
 Reference value :  7.50256e-07
 Reference value :  7.50601e-07
 Reference value :  7.51714e-07
 Reference value :  7.53504e-07
 Reference value :  7.54016e-07
 Reference value :  7.55259e-07
 Reference value :  7.56701e-07
 Reference value :  7.58670e-07
 Reference value :  7.61399e-07
 Reference value :  7.71782e-07
 Reference value :  8.18687e-07
 Reference value :  1.00000e-06
 Reference value :  1.00003e-06
 Reference value :  1.00010e-06
 Reference value :  1.00012e-06
 Reference value :  1.00034e-06
 Reference value :  1.00131e-06
 Reference value :  1.00231e-06
 Reference value :  1.00334e-06
 Reference value :  1.00457e-06
 Reference value :  1.00583e-06
 Reference value :  1.00734e-06
 Reference value :  1.01047e-06
 Reference value :  1.01264e-06
 Reference value :  1.01431e-06
 Reference value :  1.01625e-06
 Reference value :  1.01829e-06
 Reference value :  1.02314e-06
 Reference value :  1.03343e-06
 Reference value :  1.10267e-06
 Reference value :  1.22391e-06
 Reference value :  1.25011e-06
 Reference value :  1.25017e-06
 Reference value :  1.25022e-06
 Reference value :  1.25045e-06
 Reference value :  1.25084e-06
 Reference value :  1.25171e-06
 Reference value :  1.25273e-06
 Reference value :  1.25352e-06
 Reference value :  1.25403e-06
 Reference value :  1.25525e-06
 Reference value :  1.25598e-06
 Reference value :  1.25832e-06
 Reference value :  1.26314e-06
 Reference value :  1.27410e-06
 Reference value :  1.29452e-06
 Reference value :  1.46065e-06
 Reference value :  1.50001e-06
 Reference value :  1.50007e-06
 Reference value :  1.50011e-06
 Reference value :  1.50022e-06
 Reference value :  1.50052e-06
 Reference value :  1.50086e-06
 Reference value :  1.50181e-06
 Reference value :  1.50231e-06
 Reference value :  1.50333e-06
 Reference value :  1.50391e-06
 Reference value :  1.50455e-06
 Reference value :  1.50549e-06
 Reference value :  1.50715e-06
 Reference value :  1.50801e-06
 Reference value :  1.50887e-06
 Reference value :  1.51095e-06
 Reference value :  1.51464e-06
 Reference value :  1.52442e-06
 Reference value :  1.55380e-06
 Reference value :  1.66429e-06
 Reference value :  1.75013e-06
 Reference value :  1.75020e-06
 Reference value :  1.75022e-06
 Reference value :  1.75026e-06
 Reference value :  1.75032e-06
 Reference value :  1.75060e-06
 Reference value :  1.75127e-06
 Reference value :  1.75171e-06
 Reference value :  1.75273e-06
 Reference value :  1.75351e-06
 Reference value :  1.75402e-06
 Reference value :  1.75527e-06
 Reference value :  1.75598e-06
 Reference value :  1.75801e-06
 Reference value :  1.76274e-06
 Reference value :  1.77711e-06
 Reference value :  1.82331e-06
 Reference value :  2.00000e-06
 Reference value :  2.00003e-06
 Reference value :  2.00007e-06
 Reference value :  2.00011e-06
 Reference value :  2.00016e-06
 Reference value :  2.00034e-06
 Reference value :  2.00086e-06
 Reference value :  2.00131e-06
 Reference value :  2.00231e-06
 Reference value :  2.00332e-06
 Reference value :  2.00390e-06
 Reference value :  2.00449e-06
 Reference value :  2.00521e-06
 Reference value :  2.00586e-06
 Reference value :  2.00748e-06
 Reference value :  2.00853e-06
 Reference value :  2.01007e-06
 Reference value :  2.01150e-06
 Reference value :  2.01276e-06
 Reference value :  2.01376e-06
 Reference value :  2.01584e-06
 Reference value :  2.01685e-06
 Reference value :  2.01788e-06
 Reference value :  2.01906e-06
 Reference value :  2.02064e-06
 Reference value :  2.02527e-06
 Reference value :  2.02984e-06
 Reference value :  2.03818e-06
 Reference value :  2.04189e-06
 Reference value :  2.04461e-06
 Reference value :  2.04818e-06
 Reference value :  2.05064e-06
 Reference value :  2.05631e-06
 Reference value :  2.06459e-06
 Reference value :  2.07028e-06
 Reference value :  2.07620e-06
 Reference value :  2.08331e-06
 Reference value :  2.10312e-06
 Reference value :  2.15863e-06
 Reference value :  2.22753e-06
 Reference value :  2.25011e-06
 Reference value :  2.25013e-06
 Reference value :  2.25017e-06
 Reference value :  2.25020e-06
 Reference value :  2.25021e-06
 Reference value :  2.25026e-06
 Reference value :  2.25044e-06
 Reference value :  2.25083e-06
 Reference value :  2.25170e-06
 Reference value :  2.25214e-06
 Reference value :  2.25271e-06
 Reference value :  2.25346e-06
 Reference value :  2.25395e-06
 Reference value :  2.25453e-06
 Reference value :  2.25514e-06
 Reference value :  2.25586e-06
 Reference value :  2.25816e-06
 Reference value :  2.25985e-06
 Reference value :  2.26276e-06
 Reference value :  2.27466e-06
 Reference value :  2.32226e-06
 Reference value :  2.50000e-06
 Reference value :  2.50001e-06
 Reference value :  2.50007e-06
 Reference value :  2.50011e-06
 Reference value :  2.50016e-06
 Reference value :  2.50022e-06
 Reference value :  2.50052e-06
 Reference value :  2.50086e-06
 Reference value :  2.50175e-06
 Reference value :  2.50223e-06
 Reference value :  2.50322e-06
 Reference value :  2.50379e-06
 Reference value :  2.50522e-06
 Reference value :  2.50605e-06
 Reference value :  2.50671e-06
 Reference value :  2.50832e-06
 Reference value :  2.50925e-06
 Reference value :  2.51030e-06
 Reference value :  2.51149e-06
 Reference value :  2.51796e-06
 Reference value :  2.54252e-06
 Reference value :  2.57526e-06
 Reference value :  2.75010e-06
 Reference value :  2.75011e-06
 Reference value :  2.75013e-06
 Reference value :  2.75017e-06
 Reference value :  2.75020e-06
 Reference value :  2.75022e-06
 Reference value :  2.75032e-06
 Reference value :  2.75044e-06
 Reference value :  2.75083e-06
 Reference value :  2.75126e-06
 Reference value :  2.75170e-06
 Reference value :  2.75214e-06
 Reference value :  2.75270e-06
 Reference value :  2.75350e-06
 Reference value :  2.75401e-06
 Reference value :  2.75460e-06
 Reference value :  2.75527e-06
 Reference value :  2.75598e-06
 Reference value :  2.75680e-06
 Reference value :  2.75765e-06
 Reference value :  2.75871e-06
 Reference value :  2.76167e-06
 Reference value :  2.76345e-06
 Reference value :  2.77227e-06
 Reference value :  2.79469e-06
 Reference value :  2.85372e-06
 Reference value :  3.00001e-06
 Reference value :  3.00007e-06
 Reference value :  3.00010e-06
 Reference value :  3.00012e-06
 Reference value :  3.00022e-06
 Reference value :  3.00052e-06
 Reference value :  3.00086e-06
 Reference value :  3.00182e-06
 Reference value :  3.00278e-06
 Reference value :  3.00334e-06
 Reference value :  3.00393e-06
 Reference value :  3.00457e-06
 Reference value :  3.00519e-06
 Reference value :  3.00582e-06
 Reference value :  3.00733e-06
 Reference value :  3.00943e-06
 Reference value :  3.01155e-06
 Reference value :  3.01267e-06
 Reference value :  3.01351e-06
 Reference value :  3.01528e-06
 Reference value :  3.01628e-06
 Reference value :  3.01835e-06
 Reference value :  3.02135e-06
 Reference value :  3.02330e-06
 Reference value :  3.04561e-06
 Reference value :  3.12400e-06
 Reference value :  3.20311e-06
 Reference value :  3.25010e-06
 Reference value :  3.25013e-06
 Reference value :  3.25020e-06
 Reference value :  3.25022e-06
 Reference value :  3.25032e-06
 Reference value :  3.25084e-06
 Reference value :  3.25171e-06
 Reference value :  3.25273e-06
 Reference value :  3.25352e-06
 Reference value :  3.25403e-06
 Reference value :  3.25524e-06
 Reference value :  3.25597e-06
 Reference value :  3.25830e-06
 Reference value :  3.26748e-06
 Reference value :  3.29378e-06
 Reference value :  3.39003e-06
 Reference value :  3.50001e-06
 Reference value :  3.50007e-06
 Reference value :  3.50011e-06
 Reference value :  3.50022e-06
 Reference value :  3.50052e-06
 Reference value :  3.50131e-06
 Reference value :  3.50175e-06
 Reference value :  3.50268e-06
 Reference value :  3.50322e-06
 Reference value :  3.50442e-06
 Reference value :  3.50522e-06
 Reference value :  3.50605e-06
 Reference value :  3.50671e-06
 Reference value :  3.50748e-06
 Reference value :  3.50832e-06
 Reference value :  3.50925e-06
 Reference value :  3.51384e-06
 Reference value :  3.54198e-06
 Reference value :  3.63849e-06
 Reference value :  3.75010e-06
 Reference value :  3.75013e-06
 Reference value :  3.75020e-06
 Reference value :  3.75026e-06
 Reference value :  3.75060e-06
 Reference value :  3.75126e-06
 Reference value :  3.75214e-06
 Reference value :  3.75270e-06
 Reference value :  3.75350e-06
 Reference value :  3.75401e-06
 Reference value :  3.75460e-06
 Reference value :  3.75527e-06
 Reference value :  3.75598e-06
 Reference value :  3.75679e-06
 Reference value :  3.75764e-06
 Reference value :  3.75871e-06
 Reference value :  3.76165e-06
 Reference value :  3.77221e-06
 Reference value :  3.78016e-06
 Reference value :  3.81654e-06
 Reference value :  3.91427e-06
 Reference value :  4.00001e-06
 Reference value :  4.00007e-06
 Reference value :  4.00012e-06
 Reference value :  4.00022e-06
 Reference value :  4.00052e-06
 Reference value :  4.00086e-06
 Reference value :  4.00131e-06
 Reference value :  4.00231e-06
 Reference value :  4.00334e-06
 Reference value :  4.00457e-06
 Reference value :  4.00582e-06
 Reference value :  4.00733e-06
 Reference value :  4.00834e-06
 Reference value :  4.01047e-06
 Reference value :  4.01155e-06
 Reference value :  4.01267e-06
 Reference value :  4.01353e-06
 Reference value :  4.01533e-06
 Reference value :  4.01633e-06
 Reference value :  4.01730e-06
 Reference value :  4.01843e-06
 Reference value :  4.02145e-06
 Reference value :  4.02738e-06
 Reference value :  4.04400e-06
 Reference value :  4.05388e-06
 Reference value :  4.06212e-06
 Reference value :  4.06795e-06
 Reference value :  4.07185e-06
 Reference value :  4.07542e-06
 Reference value :  4.08541e-06
 Reference value :  4.10588e-06
 Reference value :  4.19621e-06
 Reference value :  4.22405e-06
 Reference value :  4.25011e-06
 Reference value :  4.25017e-06
 Reference value :  4.25021e-06
 Reference value :  4.25025e-06
 Reference value :  4.25032e-06
 Reference value :  4.25054e-06
 Reference value :  4.25098e-06
 Reference value :  4.25146e-06
 Reference value :  4.25244e-06
 Reference value :  4.25312e-06
 Reference value :  4.25439e-06
 Reference value :  4.25563e-06
 Reference value :  4.25744e-06
 Reference value :  4.25917e-06
 Reference value :  4.26114e-06
 Reference value :  4.26586e-06
 Reference value :  4.27456e-06
 Reference value :  4.30500e-06
 Reference value :  4.34127e-06
 Reference value :  4.38680e-06
 Reference value :  4.47437e-06
 Reference value :  4.50007e-06
 Reference value :  4.50016e-06
 Reference value :  4.50035e-06
 Reference value :  4.50093e-06
 Reference value :  4.50196e-06
 Reference value :  4.50293e-06
 Reference value :  4.50347e-06
 Reference value :  4.50471e-06
 Reference value :  4.50648e-06
 Reference value :  4.50836e-06
 Reference value :  4.51025e-06
 Reference value :  4.51261e-06
 Reference value :  4.53799e-06
 Reference value :  4.75010e-06
 Reference value :  4.75013e-06
 Reference value :  4.75020e-06
 Reference value :  4.75022e-06
 Reference value :  4.75032e-06
 Reference value :  4.75054e-06
 Reference value :  4.75099e-06
 Reference value :  4.75147e-06
 Reference value :  4.75245e-06
 Reference value :  4.75311e-06
 Reference value :  4.75382e-06
 Reference value :  4.75440e-06
 Reference value :  4.75567e-06
 Reference value :  4.75643e-06
 Reference value :  4.75726e-06
 Reference value :  4.75808e-06
 Reference value :  4.75904e-06
 Reference value :  4.76025e-06
 Reference value :  4.76191e-06
 Reference value :  4.76405e-06
 Reference value :  4.77286e-06
 Reference value :  4.79468e-06
 Reference value :  4.85103e-06
 Reference value :  5.00000e-06
 Reference value :  5.00003e-06
 Reference value :  5.00010e-06
 Reference value :  5.00012e-06
 Reference value :  5.00022e-06
 Reference value :  5.00059e-06
 Reference value :  5.00093e-06
 Reference value :  5.00196e-06
 Reference value :  5.00245e-06
 Reference value :  5.00297e-06
 Reference value :  5.00350e-06
 Reference value :  5.00410e-06
 Reference value :  5.00459e-06
 Reference value :  5.00515e-06
 Reference value :  5.00583e-06
 Reference value :  5.00731e-06
 Reference value :  5.01066e-06
 Reference value :  5.01175e-06
 Reference value :  5.01293e-06
 Reference value :  5.01377e-06
 Reference value :  5.01455e-06
 Reference value :  5.01552e-06
 Reference value :  5.01745e-06
 Reference value :  5.01871e-06
 Reference value :  5.01993e-06
 Reference value :  5.02683e-06
 Reference value :  5.03249e-06
 Reference value :  5.03727e-06
 Reference value :  5.05141e-06
 Reference value :  5.07445e-06
 Reference value :  5.08614e-06
 Reference value :  5.12860e-06
 Reference value :  5.24990e-06
 Reference value :  5.25011e-06
 Reference value :  5.25017e-06
 Reference value :  5.25021e-06
 Reference value :  5.25032e-06
 Reference value :  5.25071e-06
 Reference value :  5.25143e-06
 Reference value :  5.25241e-06
 Reference value :  5.25381e-06
 Reference value :  5.25435e-06
 Reference value :  5.25556e-06
 Reference value :  5.25718e-06
 Reference value :  5.26100e-06
 Reference value :  5.27013e-06
 Reference value :  5.34408e-06
 Reference value :  5.50000e-06
 Reference value :  5.50001e-06
 Reference value :  5.50003e-06
 Reference value :  5.50007e-06
 Reference value :  5.50011e-06
 Reference value :  5.50012e-06
 Reference value :  5.50022e-06
 Reference value :  5.50035e-06
 Reference value :  5.50093e-06
 Reference value :  5.50145e-06
 Reference value :  5.50196e-06
 Reference value :  5.50245e-06
 Reference value :  5.50297e-06
 Reference value :  5.50350e-06
 Reference value :  5.50410e-06
 Reference value :  5.50490e-06
 Reference value :  5.50570e-06
 Reference value :  5.50641e-06
 Reference value :  5.50731e-06
 Reference value :  5.50828e-06
 Reference value :  5.50925e-06
 Reference value :  5.51020e-06
 Reference value :  5.51126e-06
 Reference value :  5.51487e-06
 Reference value :  5.52702e-06
 Reference value :  5.57372e-06
 Reference value :  5.75010e-06
 Reference value :  5.75011e-06
 Reference value :  5.75017e-06
 Reference value :  5.75021e-06
 Reference value :  5.75025e-06
 Reference value :  5.75032e-06
 Reference value :  5.75039e-06
 Reference value :  5.75054e-06
 Reference value :  5.75074e-06
 Reference value :  5.75099e-06
 Reference value :  5.75194e-06
 Reference value :  5.75311e-06
 Reference value :  5.75440e-06
 Reference value :  5.75566e-06
 Reference value :  5.75643e-06
 Reference value :  5.75725e-06
 Reference value :  5.76116e-06
 Reference value :  5.78296e-06
 Reference value :  5.85189e-06
 Reference value :  6.00000e-06
 Reference value :  6.00001e-06
 Reference value :  6.00007e-06
 Reference value :  6.00011e-06
 Reference value :  6.00016e-06
 Reference value :  6.00059e-06
 Reference value :  6.00145e-06
 Reference value :  6.00245e-06
 Reference value :  6.00297e-06
 Reference value :  6.00349e-06
 Reference value :  6.00410e-06
 Reference value :  6.00466e-06
 Reference value :  6.00526e-06
 Reference value :  6.00659e-06
 Reference value :  6.00739e-06
 Reference value :  6.01046e-06
 Reference value :  6.01186e-06
 Reference value :  6.01440e-06
 Reference value :  6.01651e-06
 Reference value :  6.01892e-06
 Reference value :  6.02021e-06
 Reference value :  6.02224e-06
 Reference value :  6.02490e-06
 Reference value :  6.03009e-06
 Reference value :  6.06006e-06
 Reference value :  6.12106e-06
 Reference value :  6.17084e-06
 Reference value :  6.25011e-06
 Reference value :  6.25017e-06
 Reference value :  6.25021e-06
 Reference value :  6.25026e-06
 Reference value :  6.25039e-06
 Reference value :  6.25071e-06
 Reference value :  6.25193e-06
 Reference value :  6.25381e-06
 Reference value :  6.25435e-06
 Reference value :  6.25558e-06
 Reference value :  6.25638e-06
 Reference value :  6.26449e-06
 Reference value :  6.30363e-06
 Reference value :  6.50000e-06
 Reference value :  6.50007e-06
 Reference value :  6.50012e-06
 Reference value :  6.50035e-06
 Reference value :  6.50093e-06
 Reference value :  6.50196e-06
 Reference value :  6.50245e-06
 Reference value :  6.50350e-06
 Reference value :  6.50488e-06
 Reference value :  6.50641e-06
 Reference value :  6.50826e-06
 Reference value :  6.51124e-06
 Reference value :  6.51483e-06
 Reference value :  6.57302e-06
 Reference value :  6.75013e-06
 Reference value :  6.75022e-06
 Reference value :  6.75032e-06
 Reference value :  6.75054e-06
 Reference value :  6.75074e-06
 Reference value :  6.75099e-06
 Reference value :  6.75147e-06
 Reference value :  6.75194e-06
 Reference value :  6.75244e-06
 Reference value :  6.75311e-06
 Reference value :  6.75382e-06
 Reference value :  6.75440e-06
 Reference value :  6.75503e-06
 Reference value :  6.75643e-06
 Reference value :  6.75725e-06
 Reference value :  6.76115e-06
 Reference value :  6.78293e-06
 Reference value :  6.94176e-06
 Reference value :  7.00001e-06
 Reference value :  7.00007e-06
 Reference value :  7.00011e-06
 Reference value :  7.00016e-06
 Reference value :  7.00035e-06
 Reference value :  7.00093e-06
 Reference value :  7.00196e-06
 Reference value :  7.00297e-06
 Reference value :  7.00349e-06
 Reference value :  7.00466e-06
 Reference value :  7.00526e-06
 Reference value :  7.00659e-06
 Reference value :  7.00872e-06
 Reference value :  7.01046e-06
 Reference value :  7.01186e-06
 Reference value :  7.01440e-06
 Reference value :  7.01753e-06
 Reference value :  7.02224e-06
 Reference value :  7.03015e-06
 Reference value :  7.07254e-06
 Reference value :  7.21654e-06
 Reference value :  7.25011e-06
 Reference value :  7.25017e-06
 Reference value :  7.25021e-06
 Reference value :  7.25026e-06
 Reference value :  7.25054e-06
 Reference value :  7.25097e-06
 Reference value :  7.25193e-06
 Reference value :  7.25309e-06
 Reference value :  7.25435e-06
 Reference value :  7.25558e-06
 Reference value :  7.25638e-06
 Reference value :  7.25892e-06
 Reference value :  7.26449e-06
 Reference value :  7.28258e-06
 Reference value :  7.34556e-06
 Reference value :  7.50000e-06
 Reference value :  7.50003e-06
 Reference value :  7.50010e-06
 Reference value :  7.50016e-06
 Reference value :  7.50059e-06
 Reference value :  7.50145e-06
 Reference value :  7.50245e-06
 Reference value :  7.50350e-06
 Reference value :  7.50488e-06
 Reference value :  7.50641e-06
 Reference value :  7.50826e-06
 Reference value :  7.51018e-06
 Reference value :  7.51124e-06
 Reference value :  7.51483e-06
 Reference value :  7.52682e-06
 Reference value :  7.57267e-06
 Reference value :  7.63284e-06
 Reference value :  7.75011e-06
 Reference value :  7.75013e-06
 Reference value :  7.75020e-06
 Reference value :  7.75022e-06
 Reference value :  7.75032e-06
 Reference value :  7.75054e-06
 Reference value :  7.75099e-06
 Reference value :  7.75194e-06
 Reference value :  7.75244e-06
 Reference value :  7.75382e-06
 Reference value :  7.75440e-06
 Reference value :  7.75566e-06
 Reference value :  7.75888e-06
 Reference value :  7.77066e-06
 Reference value :  7.93997e-06
 Reference value :  8.00001e-06
 Reference value :  8.00010e-06
 Reference value :  8.00012e-06
 Reference value :  8.00059e-06
 Reference value :  8.00145e-06
 Reference value :  8.00245e-06
 Reference value :  8.00349e-06
 Reference value :  8.00466e-06
 Reference value :  8.00588e-06
 Reference value :  8.00739e-06
 Reference value :  8.00814e-06
 Reference value :  8.00996e-06
 Reference value :  8.01737e-06
 Reference value :  8.07603e-06
 Reference value :  8.25011e-06
 Reference value :  8.25017e-06
 Reference value :  8.25020e-06
 Reference value :  8.25022e-06
 Reference value :  8.25032e-06
 Reference value :  8.25060e-06
 Reference value :  8.25118e-06
 Reference value :  8.25205e-06
 Reference value :  8.25329e-06
 Reference value :  8.25503e-06
 Reference value :  8.25693e-06
 Reference value :  8.26020e-06
 Reference value :  8.29669e-06
No. of Data Rows : 1240
ngspice-44 done
