
Note: Compatibility modes selected: hs a


Circuit: ** sch_path: /home/ece/cace/sar-adc-using-sky130-pdk/runs/run_2025-09-10_19-58-20/parameters/sampling_rate/run_70/sampling_rate.sch

option SCALE: Scale is set to 1e-06 for instance and model parameters
option SCALE: Scale is set to 1e-06 for instance and model parameters
option SCALE: Scale is set to 1e-06 for instance and model parameters
option SCALE: Scale is set to 1e-06 for instance and model parameters
Doing analysis at TEMP = 27.000000 and TNOM = 27.000000

Using KLU as Direct Linear Solver
Operating point simulation skipped by 'uic',
  now using transient initial conditions.
 Reference value :  1.00000e-12
 Reference value :  1.07715e-12
 Reference value :  1.62890e-12
 Reference value :  4.18764e-12
 Reference value :  1.91009e-11
 Reference value :  9.56578e-11
 Reference value :  1.03873e-10
 Reference value :  1.58091e-10
 Reference value :  5.83789e-10
 Reference value :  1.24863e-09
 Reference value :  3.11730e-09
 Reference value :  4.76623e-09
 Reference value :  6.68988e-09
 Reference value :  8.35346e-09
 Reference value :  9.64457e-09
 Reference value :  1.19423e-08
 Reference value :  1.33778e-08
 Reference value :  1.74533e-08
 Reference value :  2.41426e-08
 Reference value :  3.13522e-08
 Reference value :  4.34845e-08
 Reference value :  1.00857e-07
 Reference value :  2.50100e-07
 Reference value :  2.50130e-07
 Reference value :  2.50200e-07
 Reference value :  2.50253e-07
 Reference value :  2.50522e-07
 Reference value :  2.51227e-07
 Reference value :  2.51636e-07
 Reference value :  2.52678e-07
 Reference value :  2.53968e-07
 Reference value :  2.55234e-07
 Reference value :  2.56690e-07
 Reference value :  2.61137e-07
 Reference value :  2.80150e-07
 Reference value :  5.00000e-07
 Reference value :  5.00070e-07
 Reference value :  5.00124e-07
 Reference value :  5.00337e-07
 Reference value :  5.01283e-07
 Reference value :  5.02189e-07
 Reference value :  5.03256e-07
 Reference value :  5.04511e-07
 Reference value :  5.06264e-07
 Reference value :  5.09047e-07
 Reference value :  5.10263e-07
 Reference value :  5.13079e-07
 Reference value :  5.16412e-07
 Reference value :  5.23449e-07
 Reference value :  5.44616e-07
 Reference value :  6.71874e-07
 Reference value :  7.50130e-07
 Reference value :  7.50208e-07
 Reference value :  7.50318e-07
 Reference value :  7.50948e-07
 Reference value :  7.51856e-07
 Reference value :  7.53028e-07
 Reference value :  7.54422e-07
 Reference value :  7.55803e-07
 Reference value :  7.57551e-07
 Reference value :  7.72873e-07
 Reference value :  9.19162e-07
 Reference value :  1.00003e-06
 Reference value :  1.00011e-06
 Reference value :  1.00022e-06
 Reference value :  1.00083e-06
 Reference value :  1.00176e-06
 Reference value :  1.00268e-06
 Reference value :  1.00391e-06
 Reference value :  1.00499e-06
 Reference value :  1.00609e-06
 Reference value :  1.00843e-06
 Reference value :  1.01142e-06
 Reference value :  1.01388e-06
 Reference value :  1.01708e-06
 Reference value :  1.02106e-06
 Reference value :  1.04083e-06
 Reference value :  1.22163e-06
 Reference value :  1.25017e-06
 Reference value :  1.25026e-06
 Reference value :  1.25095e-06
 Reference value :  1.25185e-06
 Reference value :  1.25379e-06
 Reference value :  1.25573e-06
 Reference value :  1.26153e-06
 Reference value :  1.34624e-06
 Reference value :  1.50003e-06
 Reference value :  1.50012e-06
 Reference value :  1.50034e-06
 Reference value :  1.50128e-06
 Reference value :  1.50219e-06
 Reference value :  1.50323e-06
 Reference value :  1.50443e-06
 Reference value :  1.50617e-06
 Reference value :  1.50819e-06
 Reference value :  1.51036e-06
 Reference value :  1.51289e-06
 Reference value :  1.54524e-06
 Reference value :  1.75011e-06
 Reference value :  1.75020e-06
 Reference value :  1.75032e-06
 Reference value :  1.75094e-06
 Reference value :  1.75185e-06
 Reference value :  1.75302e-06
 Reference value :  1.75441e-06
 Reference value :  1.75578e-06
 Reference value :  1.75928e-06
 Reference value :  1.78487e-06
 Reference value :  2.00000e-06
 Reference value :  2.00010e-06
 Reference value :  2.00016e-06
 Reference value :  2.00034e-06
 Reference value :  2.00128e-06
 Reference value :  2.00219e-06
 Reference value :  2.00329e-06
 Reference value :  2.00441e-06
 Reference value :  2.00557e-06
 Reference value :  2.00671e-06
 Reference value :  2.00999e-06
 Reference value :  2.01280e-06
 Reference value :  2.01389e-06
 Reference value :  2.01603e-06
 Reference value :  2.01707e-06
 Reference value :  2.01938e-06
 Reference value :  2.02611e-06
 Reference value :  2.05879e-06
 Reference value :  2.22697e-06
 Reference value :  2.25011e-06
 Reference value :  2.25017e-06
 Reference value :  2.25022e-06
 Reference value :  2.25044e-06
 Reference value :  2.25068e-06
 Reference value :  2.25138e-06
 Reference value :  2.25236e-06
 Reference value :  2.25378e-06
 Reference value :  2.25506e-06
 Reference value :  2.25669e-06
 Reference value :  2.26149e-06
 Reference value :  2.28485e-06
 Reference value :  2.41287e-06
 Reference value :  2.50003e-06
 Reference value :  2.50010e-06
 Reference value :  2.50012e-06
 Reference value :  2.50034e-06
 Reference value :  2.50083e-06
 Reference value :  2.50128e-06
 Reference value :  2.50219e-06
 Reference value :  2.50323e-06
 Reference value :  2.50443e-06
 Reference value :  2.50617e-06
 Reference value :  2.50819e-06
 Reference value :  2.51037e-06
 Reference value :  2.51289e-06
 Reference value :  2.52869e-06
 Reference value :  2.75010e-06
 Reference value :  2.75017e-06
 Reference value :  2.75022e-06
 Reference value :  2.75044e-06
 Reference value :  2.75094e-06
 Reference value :  2.75185e-06
 Reference value :  2.75377e-06
 Reference value :  2.75506e-06
 Reference value :  2.75759e-06
 Reference value :  2.76559e-06
 Reference value :  2.84278e-06
 Reference value :  3.00001e-06
 Reference value :  3.00010e-06
 Reference value :  3.00016e-06
 Reference value :  3.00034e-06
 Reference value :  3.00128e-06
 Reference value :  3.00219e-06
 Reference value :  3.00329e-06
 Reference value :  3.00440e-06
 Reference value :  3.00557e-06
 Reference value :  3.00671e-06
 Reference value :  3.00999e-06
 Reference value :  3.01280e-06
 Reference value :  3.01493e-06
 Reference value :  3.01707e-06
 Reference value :  3.02105e-06
 Reference value :  3.03772e-06
 Reference value :  3.05062e-06
 Reference value :  3.06979e-06
 Reference value :  3.08448e-06
 Reference value :  3.10482e-06
 Reference value :  3.12263e-06
 Reference value :  3.19514e-06
 Reference value :  3.25011e-06
 Reference value :  3.25020e-06
 Reference value :  3.25026e-06
 Reference value :  3.25069e-06
 Reference value :  3.25185e-06
 Reference value :  3.25373e-06
 Reference value :  3.25578e-06
 Reference value :  3.25940e-06
 Reference value :  3.28508e-06
 Reference value :  3.37441e-06
 Reference value :  3.42060e-06
 Reference value :  3.49522e-06
 Reference value :  3.50007e-06
 Reference value :  3.50012e-06
 Reference value :  3.50083e-06
 Reference value :  3.50219e-06
 Reference value :  3.50323e-06
 Reference value :  3.50442e-06
 Reference value :  3.50616e-06
 Reference value :  3.50931e-06
 Reference value :  3.51288e-06
 Reference value :  3.54433e-06
 Reference value :  3.75011e-06
 Reference value :  3.75021e-06
 Reference value :  3.75044e-06
 Reference value :  3.75138e-06
 Reference value :  3.75302e-06
 Reference value :  3.75440e-06
 Reference value :  3.75671e-06
 Reference value :  3.76554e-06
 Reference value :  3.90850e-06
 Reference value :  4.00007e-06
 Reference value :  4.00012e-06
 Reference value :  4.00034e-06
 Reference value :  4.00128e-06
 Reference value :  4.00219e-06
 Reference value :  4.00391e-06
 Reference value :  4.00498e-06
 Reference value :  4.00609e-06
 Reference value :  4.00844e-06
 Reference value :  4.01143e-06
 Reference value :  4.01280e-06
 Reference value :  4.01493e-06
 Reference value :  4.01707e-06
 Reference value :  4.02105e-06
 Reference value :  4.03157e-06
 Reference value :  4.04144e-06
 Reference value :  4.05597e-06
 Reference value :  4.10807e-06
 Reference value :  4.21488e-06
 Reference value :  4.25013e-06
 Reference value :  4.25021e-06
 Reference value :  4.25032e-06
 Reference value :  4.25095e-06
 Reference value :  4.25185e-06
 Reference value :  4.25302e-06
 Reference value :  4.25440e-06
 Reference value :  4.25675e-06
 Reference value :  4.26604e-06
 Reference value :  4.34012e-06
 Reference value :  4.50003e-06
 Reference value :  4.50011e-06
 Reference value :  4.50022e-06
 Reference value :  4.50083e-06
 Reference value :  4.50176e-06
 Reference value :  4.50218e-06
 Reference value :  4.50332e-06
 Reference value :  4.50395e-06
 Reference value :  4.50553e-06
 Reference value :  4.50734e-06
 Reference value :  4.50817e-06
 Reference value :  4.50903e-06
 Reference value :  4.51119e-06
 Reference value :  4.52890e-06
 Reference value :  4.75011e-06
 Reference value :  4.75020e-06
 Reference value :  4.75032e-06
 Reference value :  4.75094e-06
 Reference value :  4.75185e-06
 Reference value :  4.75302e-06
 Reference value :  4.75439e-06
 Reference value :  4.75757e-06
 Reference value :  4.76214e-06
 Reference value :  4.84847e-06
 Reference value :  5.00007e-06
 Reference value :  5.00022e-06
 Reference value :  5.00128e-06
 Reference value :  5.00329e-06
 Reference value :  5.00499e-06
 Reference value :  5.00609e-06
 Reference value :  5.00843e-06
 Reference value :  5.01174e-06
 Reference value :  5.01369e-06
 Reference value :  5.01757e-06
 Reference value :  5.02202e-06
 Reference value :  5.02943e-06
 Reference value :  5.03639e-06
 Reference value :  5.05119e-06
 Reference value :  5.08776e-06
 Reference value :  5.10494e-06
 Reference value :  5.11881e-06
 Reference value :  5.14446e-06
 Reference value :  5.19552e-06
 Reference value :  5.25010e-06
 Reference value :  5.25013e-06
 Reference value :  5.25020e-06
 Reference value :  5.25026e-06
 Reference value :  5.25045e-06
 Reference value :  5.25094e-06
 Reference value :  5.25185e-06
 Reference value :  5.25374e-06
 Reference value :  5.25580e-06
 Reference value :  5.25944e-06
 Reference value :  5.28488e-06
 Reference value :  5.40448e-06
 Reference value :  5.50007e-06
 Reference value :  5.50012e-06
 Reference value :  5.50034e-06
 Reference value :  5.50129e-06
 Reference value :  5.50218e-06
 Reference value :  5.50395e-06
 Reference value :  5.50657e-06
 Reference value :  5.50817e-06
 Reference value :  5.51003e-06
 Reference value :  5.51485e-06
 Reference value :  5.65983e-06
 Reference value :  5.75017e-06
 Reference value :  5.75032e-06
 Reference value :  5.75138e-06
 Reference value :  5.75302e-06
 Reference value :  5.75504e-06
 Reference value :  5.75757e-06
 Reference value :  5.75933e-06
 Reference value :  5.76484e-06
 Reference value :  5.80737e-06
 Reference value :  6.00001e-06
 Reference value :  6.00010e-06
 Reference value :  6.00016e-06
 Reference value :  6.00050e-06
 Reference value :  6.00128e-06
 Reference value :  6.00219e-06
 Reference value :  6.00329e-06
 Reference value :  6.00441e-06
 Reference value :  6.00556e-06
 Reference value :  6.00670e-06
 Reference value :  6.00973e-06
 Reference value :  6.01175e-06
 Reference value :  6.01369e-06
 Reference value :  6.01653e-06
 Reference value :  6.01996e-06
 Reference value :  6.02389e-06
 Reference value :  6.02537e-06
 Reference value :  6.02885e-06
 Reference value :  6.03852e-06
 Reference value :  6.07562e-06
 Reference value :  6.23611e-06
 Reference value :  6.25013e-06
 Reference value :  6.25021e-06
 Reference value :  6.25044e-06
 Reference value :  6.25138e-06
 Reference value :  6.25302e-06
 Reference value :  6.25433e-06
 Reference value :  6.25657e-06
 Reference value :  6.26141e-06
 Reference value :  6.30221e-06
 Reference value :  6.47709e-06
 Reference value :  6.50007e-06
 Reference value :  6.50016e-06
 Reference value :  6.50050e-06
 Reference value :  6.50129e-06
 Reference value :  6.50218e-06
 Reference value :  6.50396e-06
 Reference value :  6.50557e-06
 Reference value :  6.50738e-06
 Reference value :  6.50904e-06
 Reference value :  6.51237e-06
 Reference value :  6.54599e-06
 Reference value :  6.75011e-06
 Reference value :  6.75020e-06
 Reference value :  6.75032e-06
 Reference value :  6.75094e-06
 Reference value :  6.75235e-06
 Reference value :  6.75439e-06
 Reference value :  6.75669e-06
 Reference value :  6.75842e-06
 Reference value :  6.76213e-06
 Reference value :  6.78741e-06
 Reference value :  7.00000e-06
 Reference value :  7.00003e-06
 Reference value :  7.00011e-06
 Reference value :  7.00022e-06
 Reference value :  7.00083e-06
 Reference value :  7.00176e-06
 Reference value :  7.00219e-06
 Reference value :  7.00330e-06
 Reference value :  7.00443e-06
 Reference value :  7.00557e-06
 Reference value :  7.00609e-06
 Reference value :  7.00842e-06
 Reference value :  7.01070e-06
 Reference value :  7.01284e-06
 Reference value :  7.01447e-06
 Reference value :  7.01651e-06
 Reference value :  7.01879e-06
 Reference value :  7.02162e-06
 Reference value :  7.02572e-06
 Reference value :  7.03451e-06
 Reference value :  7.07265e-06
 Reference value :  7.14700e-06
 Reference value :  7.25011e-06
 Reference value :  7.25020e-06
 Reference value :  7.25032e-06
 Reference value :  7.25068e-06
 Reference value :  7.25138e-06
 Reference value :  7.25302e-06
 Reference value :  7.25438e-06
 Reference value :  7.25665e-06
 Reference value :  7.26139e-06
 Reference value :  7.30492e-06
 Reference value :  7.50001e-06
 Reference value :  7.50010e-06
 Reference value :  7.50016e-06
 Reference value :  7.50050e-06
 Reference value :  7.50128e-06
 Reference value :  7.50219e-06
 Reference value :  7.50323e-06
 Reference value :  7.50442e-06
 Reference value :  7.50616e-06
 Reference value :  7.50818e-06
 Reference value :  7.51036e-06
 Reference value :  7.51289e-06
 Reference value :  7.52856e-06
 Reference value :  7.64298e-06
 Reference value :  7.75013e-06
 Reference value :  7.75021e-06
 Reference value :  7.75032e-06
 Reference value :  7.75094e-06
 Reference value :  7.75138e-06
 Reference value :  7.75235e-06
 Reference value :  7.75376e-06
 Reference value :  7.75505e-06
 Reference value :  7.75757e-06
 Reference value :  7.77250e-06
 Reference value :  7.90490e-06
 Reference value :  8.00003e-06
 Reference value :  8.00011e-06
 Reference value :  8.00022e-06
 Reference value :  8.00083e-06
 Reference value :  8.00176e-06
 Reference value :  8.00268e-06
 Reference value :  8.00391e-06
 Reference value :  8.00498e-06
 Reference value :  8.00556e-06
 Reference value :  8.00609e-06
 Reference value :  8.00758e-06
 Reference value :  8.01027e-06
 Reference value :  8.02670e-06
 Reference value :  8.25011e-06
 Reference value :  8.25020e-06
 Reference value :  8.25032e-06
 Reference value :  8.25139e-06
 Reference value :  8.25303e-06
 Reference value :  8.25475e-06
 Reference value :  8.25925e-06
 Reference value :  8.28060e-06
 Reference value :  8.49693e-06
 Reference value :  8.50007e-06
 Reference value :  8.50016e-06
 Reference value :  8.50096e-06
 Reference value :  8.50262e-06
 Reference value :  8.50382e-06
 Reference value :  8.50600e-06
 Reference value :  8.51071e-06
 Reference value :  8.52429e-06
 Reference value :  8.52843e-06
 Reference value :  8.53146e-06
 Reference value :  8.53424e-06
 Reference value :  8.53863e-06
 Reference value :  8.54517e-06
 Reference value :  8.55699e-06
 Reference value :  8.58779e-06
 Reference value :  8.66652e-06
 Reference value :  8.75011e-06
 Reference value :  8.75017e-06
 Reference value :  8.75022e-06
 Reference value :  8.75044e-06
 Reference value :  8.75094e-06
 Reference value :  8.75185e-06
 Reference value :  8.75377e-06
 Reference value :  8.75504e-06
 Reference value :  8.75762e-06
 Reference value :  8.77248e-06
 Reference value :  8.90551e-06
No. of Data Rows : 1315
ngspice-44 done
