
Note: Compatibility modes selected: hs a


Circuit: ** sch_path: /home/issa/cace/sar-adc-using-sky130-pdk/runs/run_2025-09-20_12-25-48/parameters/sampling_rate/run_07/sampling_rate.sch

option SCALE: Scale is set to 1e-06 for instance and model parameters
option SCALE: Scale is set to 1e-06 for instance and model parameters
option SCALE: Scale is set to 1e-06 for instance and model parameters
option SCALE: Scale is set to 1e-06 for instance and model parameters
Doing analysis at TEMP = 27.000000 and TNOM = 27.000000

Using KLU as Direct Linear Solver
Operating point simulation skipped by 'uic',
  now using transient initial conditions.
 Reference value :  1.00000e-12
 Reference value :  1.02800e-12
 Reference value :  1.19600e-12
 Reference value :  2.26661e-12
 Reference value :  4.44749e-12
 Reference value :  9.67807e-12
 Reference value :  2.08113e-11
 Reference value :  3.45933e-11
 Reference value :  6.21572e-11
 Reference value :  1.00000e-10
 Reference value :  1.05513e-10
 Reference value :  1.16538e-10
 Reference value :  1.38590e-10
 Reference value :  1.82692e-10
 Reference value :  4.47306e-10
 Reference value :  9.78771e-10
 Reference value :  1.35751e-09
 Reference value :  2.50517e-09
 Reference value :  4.07746e-09
 Reference value :  5.07447e-09
 Reference value :  6.78174e-09
 Reference value :  7.48949e-09
 Reference value :  8.28269e-09
 Reference value :  1.02113e-08
 Reference value :  1.13356e-08
 Reference value :  1.21386e-08
 Reference value :  1.37117e-08
 Reference value :  1.61220e-08
 Reference value :  2.14188e-08
 Reference value :  2.78042e-08
 Reference value :  4.00572e-08
 Reference value :  6.79898e-08
 Reference value :  1.97138e-07
 Reference value :  2.50110e-07
 Reference value :  2.50170e-07
 Reference value :  2.50208e-07
 Reference value :  2.50312e-07
 Reference value :  2.50680e-07
 Reference value :  2.51285e-07
 Reference value :  2.51695e-07
 Reference value :  2.52676e-07
 Reference value :  2.53257e-07
 Reference value :  2.53738e-07
 Reference value :  2.54793e-07
 Reference value :  2.56198e-07
 Reference value :  2.61167e-07
 Reference value :  2.80587e-07
 Reference value :  3.03879e-07
 Reference value :  3.12023e-07
 Reference value :  3.19714e-07
 Reference value :  3.26927e-07
 Reference value :  3.40764e-07
 Reference value :  3.64431e-07
 Reference value :  4.15787e-07
 Reference value :  5.00000e-07
 Reference value :  5.00010e-07
 Reference value :  5.00070e-07
 Reference value :  5.00108e-07
 Reference value :  5.00156e-07
 Reference value :  5.00338e-07
 Reference value :  5.00826e-07
 Reference value :  5.01185e-07
 Reference value :  5.01525e-07
 Reference value :  5.02325e-07
 Reference value :  5.02806e-07
 Reference value :  5.03883e-07
 Reference value :  5.05338e-07
 Reference value :  5.06437e-07
 Reference value :  5.07728e-07
 Reference value :  5.08780e-07
 Reference value :  5.11226e-07
 Reference value :  5.12469e-07
 Reference value :  5.15540e-07
 Reference value :  5.25867e-07
 Reference value :  5.49761e-07
 Reference value :  7.50100e-07
 Reference value :  7.50130e-07
 Reference value :  7.50200e-07
 Reference value :  7.50256e-07
 Reference value :  7.50448e-07
 Reference value :  7.50986e-07
 Reference value :  7.51397e-07
 Reference value :  7.51860e-07
 Reference value :  7.52294e-07
 Reference value :  7.52988e-07
 Reference value :  7.53442e-07
 Reference value :  7.53965e-07
 Reference value :  7.54479e-07
 Reference value :  7.55022e-07
 Reference value :  7.55763e-07
 Reference value :  7.56538e-07
 Reference value :  7.57445e-07
 Reference value :  7.59536e-07
 Reference value :  7.63499e-07
 Reference value :  7.67029e-07
 Reference value :  7.88211e-07
 Reference value :  8.16452e-07
 Reference value :  9.85903e-07
 Reference value :  1.00001e-06
 Reference value :  1.00007e-06
 Reference value :  1.00011e-06
 Reference value :  1.00022e-06
 Reference value :  1.00034e-06
 Reference value :  1.00083e-06
 Reference value :  1.00157e-06
 Reference value :  1.00200e-06
 Reference value :  1.00241e-06
 Reference value :  1.00289e-06
 Reference value :  1.00340e-06
 Reference value :  1.00388e-06
 Reference value :  1.00438e-06
 Reference value :  1.00481e-06
 Reference value :  1.00587e-06
 Reference value :  1.00747e-06
 Reference value :  1.00933e-06
 Reference value :  1.01027e-06
 Reference value :  1.01125e-06
 Reference value :  1.01201e-06
 Reference value :  1.01359e-06
 Reference value :  1.01447e-06
 Reference value :  1.01631e-06
 Reference value :  1.01734e-06
 Reference value :  1.02421e-06
 Reference value :  1.04066e-06
 Reference value :  1.09352e-06
 Reference value :  1.12137e-06
 Reference value :  1.14575e-06
 Reference value :  1.16260e-06
 Reference value :  1.17699e-06
 Reference value :  1.19160e-06
 Reference value :  1.25010e-06
 Reference value :  1.25017e-06
 Reference value :  1.25022e-06
 Reference value :  1.25045e-06
 Reference value :  1.25098e-06
 Reference value :  1.25140e-06
 Reference value :  1.25230e-06
 Reference value :  1.25346e-06
 Reference value :  1.25469e-06
 Reference value :  1.25609e-06
 Reference value :  1.25915e-06
 Reference value :  1.27390e-06
 Reference value :  1.32166e-06
 Reference value :  1.50000e-06
 Reference value :  1.50001e-06
 Reference value :  1.50010e-06
 Reference value :  1.50016e-06
 Reference value :  1.50052e-06
 Reference value :  1.50083e-06
 Reference value :  1.50158e-06
 Reference value :  1.50242e-06
 Reference value :  1.50289e-06
 Reference value :  1.50399e-06
 Reference value :  1.50552e-06
 Reference value :  1.50616e-06
 Reference value :  1.50771e-06
 Reference value :  1.50956e-06
 Reference value :  1.51251e-06
 Reference value :  1.52064e-06
 Reference value :  1.54806e-06
 Reference value :  1.65663e-06
 Reference value :  1.75011e-06
 Reference value :  1.75020e-06
 Reference value :  1.75032e-06
 Reference value :  1.75069e-06
 Reference value :  1.75140e-06
 Reference value :  1.75230e-06
 Reference value :  1.75345e-06
 Reference value :  1.75449e-06
 Reference value :  1.75581e-06
 Reference value :  1.75663e-06
 Reference value :  1.76032e-06
 Reference value :  1.77005e-06
 Reference value :  1.85919e-06
 Reference value :  2.00001e-06
 Reference value :  2.00007e-06
 Reference value :  2.00010e-06
 Reference value :  2.00011e-06
 Reference value :  2.00016e-06
 Reference value :  2.00022e-06
 Reference value :  2.00034e-06
 Reference value :  2.00052e-06
 Reference value :  2.00083e-06
 Reference value :  2.00119e-06
 Reference value :  2.00158e-06
 Reference value :  2.00201e-06
 Reference value :  2.00242e-06
 Reference value :  2.00289e-06
 Reference value :  2.00396e-06
 Reference value :  2.00500e-06
 Reference value :  2.00631e-06
 Reference value :  2.00846e-06
 Reference value :  2.01120e-06
 Reference value :  2.01223e-06
 Reference value :  2.01429e-06
 Reference value :  2.01525e-06
 Reference value :  2.01738e-06
 Reference value :  2.02398e-06
 Reference value :  2.03630e-06
 Reference value :  2.04983e-06
 Reference value :  2.10433e-06
 Reference value :  2.17110e-06
 Reference value :  2.24386e-06
 Reference value :  2.25011e-06
 Reference value :  2.25020e-06
 Reference value :  2.25022e-06
 Reference value :  2.25045e-06
 Reference value :  2.25069e-06
 Reference value :  2.25140e-06
 Reference value :  2.25230e-06
 Reference value :  2.25346e-06
 Reference value :  2.25462e-06
 Reference value :  2.25599e-06
 Reference value :  2.25892e-06
 Reference value :  2.26531e-06
 Reference value :  2.28712e-06
 Reference value :  2.35696e-06
 Reference value :  2.50000e-06
 Reference value :  2.50003e-06
 Reference value :  2.50010e-06
 Reference value :  2.50012e-06
 Reference value :  2.50034e-06
 Reference value :  2.50083e-06
 Reference value :  2.50158e-06
 Reference value :  2.50242e-06
 Reference value :  2.50290e-06
 Reference value :  2.50399e-06
 Reference value :  2.50552e-06
 Reference value :  2.50616e-06
 Reference value :  2.50771e-06
 Reference value :  2.50956e-06
 Reference value :  2.51554e-06
 Reference value :  2.54798e-06
 Reference value :  2.65649e-06
 Reference value :  2.75011e-06
 Reference value :  2.75017e-06
 Reference value :  2.75022e-06
 Reference value :  2.75045e-06
 Reference value :  2.75098e-06
 Reference value :  2.75140e-06
 Reference value :  2.75229e-06
 Reference value :  2.75345e-06
 Reference value :  2.75448e-06
 Reference value :  2.75580e-06
 Reference value :  2.76030e-06
 Reference value :  2.78257e-06
 Reference value :  2.95920e-06
 Reference value :  3.00003e-06
 Reference value :  3.00010e-06
 Reference value :  3.00016e-06
 Reference value :  3.00034e-06
 Reference value :  3.00083e-06
 Reference value :  3.00158e-06
 Reference value :  3.00242e-06
 Reference value :  3.00289e-06
 Reference value :  3.00396e-06
 Reference value :  3.00500e-06
 Reference value :  3.00631e-06
 Reference value :  3.00847e-06
 Reference value :  3.00996e-06
 Reference value :  3.01120e-06
 Reference value :  3.01223e-06
 Reference value :  3.01428e-06
 Reference value :  3.01525e-06
 Reference value :  3.01738e-06
 Reference value :  3.02076e-06
 Reference value :  3.02820e-06
 Reference value :  3.03161e-06
 Reference value :  3.03800e-06
 Reference value :  3.04159e-06
 Reference value :  3.04408e-06
 Reference value :  3.04976e-06
 Reference value :  3.05800e-06
 Reference value :  3.06434e-06
 Reference value :  3.07018e-06
 Reference value :  3.08378e-06
 Reference value :  3.14801e-06
 Reference value :  3.25011e-06
 Reference value :  3.25017e-06
 Reference value :  3.25022e-06
 Reference value :  3.25045e-06
 Reference value :  3.25069e-06
 Reference value :  3.25098e-06
 Reference value :  3.25140e-06
 Reference value :  3.25229e-06
 Reference value :  3.25299e-06
 Reference value :  3.25394e-06
 Reference value :  3.25526e-06
 Reference value :  3.25877e-06
 Reference value :  3.27185e-06
 Reference value :  3.47961e-06
 Reference value :  3.50001e-06
 Reference value :  3.50010e-06
 Reference value :  3.50016e-06
 Reference value :  3.50034e-06
 Reference value :  3.50083e-06
 Reference value :  3.50154e-06
 Reference value :  3.50235e-06
 Reference value :  3.50282e-06
 Reference value :  3.50333e-06
 Reference value :  3.50464e-06
 Reference value :  3.50536e-06
 Reference value :  3.50598e-06
 Reference value :  3.50749e-06
 Reference value :  3.50924e-06
 Reference value :  3.51029e-06
 Reference value :  3.51363e-06
 Reference value :  3.53202e-06
 Reference value :  3.75010e-06
 Reference value :  3.75013e-06
 Reference value :  3.75020e-06
 Reference value :  3.75032e-06
 Reference value :  3.75069e-06
 Reference value :  3.75140e-06
 Reference value :  3.75229e-06
 Reference value :  3.75344e-06
 Reference value :  3.75448e-06
 Reference value :  3.75579e-06
 Reference value :  3.75751e-06
 Reference value :  3.75964e-06
 Reference value :  3.76742e-06
 Reference value :  3.82011e-06
 Reference value :  4.00001e-06
 Reference value :  4.00010e-06
 Reference value :  4.00016e-06
 Reference value :  4.00052e-06
 Reference value :  4.00119e-06
 Reference value :  4.00158e-06
 Reference value :  4.00242e-06
 Reference value :  4.00290e-06
 Reference value :  4.00390e-06
 Reference value :  4.00484e-06
 Reference value :  4.00593e-06
 Reference value :  4.00758e-06
 Reference value :  4.00928e-06
 Reference value :  4.01015e-06
 Reference value :  4.01191e-06
 Reference value :  4.01356e-06
 Reference value :  4.01534e-06
 Reference value :  4.01736e-06
 Reference value :  4.02423e-06
 Reference value :  4.03682e-06
 Reference value :  4.06482e-06
 Reference value :  4.10904e-06
 Reference value :  4.12360e-06
 Reference value :  4.14823e-06
 Reference value :  4.19579e-06
 Reference value :  4.25011e-06
 Reference value :  4.25020e-06
 Reference value :  4.25032e-06
 Reference value :  4.25098e-06
 Reference value :  4.25186e-06
 Reference value :  4.25299e-06
 Reference value :  4.25396e-06
 Reference value :  4.25527e-06
 Reference value :  4.25897e-06
 Reference value :  4.27279e-06
 Reference value :  4.31691e-06
 Reference value :  4.50000e-06
 Reference value :  4.50007e-06
 Reference value :  4.50012e-06
 Reference value :  4.50022e-06
 Reference value :  4.50083e-06
 Reference value :  4.50154e-06
 Reference value :  4.50195e-06
 Reference value :  4.50282e-06
 Reference value :  4.50333e-06
 Reference value :  4.50464e-06
 Reference value :  4.50536e-06
 Reference value :  4.50598e-06
 Reference value :  4.50749e-06
 Reference value :  4.50839e-06
 Reference value :  4.51028e-06
 Reference value :  4.51673e-06
 Reference value :  4.54796e-06
 Reference value :  4.75010e-06
 Reference value :  4.75013e-06
 Reference value :  4.75020e-06
 Reference value :  4.75026e-06
 Reference value :  4.75045e-06
 Reference value :  4.75098e-06
 Reference value :  4.75140e-06
 Reference value :  4.75229e-06
 Reference value :  4.75344e-06
 Reference value :  4.75448e-06
 Reference value :  4.75502e-06
 Reference value :  4.75660e-06
 Reference value :  4.75835e-06
 Reference value :  4.75962e-06
 Reference value :  4.76363e-06
 Reference value :  4.78956e-06
 Reference value :  4.99704e-06
 Reference value :  5.00003e-06
 Reference value :  5.00010e-06
 Reference value :  5.00016e-06
 Reference value :  5.00034e-06
 Reference value :  5.00083e-06
 Reference value :  5.00158e-06
 Reference value :  5.00242e-06
 Reference value :  5.00290e-06
 Reference value :  5.00342e-06
 Reference value :  5.00390e-06
 Reference value :  5.00440e-06
 Reference value :  5.00484e-06
 Reference value :  5.00534e-06
 Reference value :  5.00758e-06
 Reference value :  5.00841e-06
 Reference value :  5.01015e-06
 Reference value :  5.01190e-06
 Reference value :  5.01269e-06
 Reference value :  5.01354e-06
 Reference value :  5.01532e-06
 Reference value :  5.01731e-06
 Reference value :  5.02405e-06
 Reference value :  5.02766e-06
 Reference value :  5.03662e-06
 Reference value :  5.04145e-06
 Reference value :  5.04495e-06
 Reference value :  5.05124e-06
 Reference value :  5.06838e-06
 Reference value :  5.12270e-06
 Reference value :  5.18811e-06
 Reference value :  5.22974e-06
 Reference value :  5.25011e-06
 Reference value :  5.25020e-06
 Reference value :  5.25026e-06
 Reference value :  5.25069e-06
 Reference value :  5.25140e-06
 Reference value :  5.25299e-06
 Reference value :  5.25343e-06
 Reference value :  5.25454e-06
 Reference value :  5.25593e-06
 Reference value :  5.26141e-06
 Reference value :  5.28535e-06
 Reference value :  5.36885e-06
 Reference value :  5.50001e-06
 Reference value :  5.50010e-06
 Reference value :  5.50016e-06
 Reference value :  5.50034e-06
 Reference value :  5.50083e-06
 Reference value :  5.50154e-06
 Reference value :  5.50235e-06
 Reference value :  5.50333e-06
 Reference value :  5.50464e-06
 Reference value :  5.50598e-06
 Reference value :  5.50749e-06
 Reference value :  5.50924e-06
 Reference value :  5.51143e-06
 Reference value :  5.52225e-06
 Reference value :  5.54790e-06
 Reference value :  5.75010e-06
 Reference value :  5.75013e-06
 Reference value :  5.75020e-06
 Reference value :  5.75022e-06
 Reference value :  5.75045e-06
 Reference value :  5.75069e-06
 Reference value :  5.75098e-06
 Reference value :  5.75140e-06
 Reference value :  5.75229e-06
 Reference value :  5.75299e-06
 Reference value :  5.75344e-06
 Reference value :  5.75397e-06
 Reference value :  5.75447e-06
 Reference value :  5.75502e-06
 Reference value :  5.75579e-06
 Reference value :  5.75660e-06
 Reference value :  5.75749e-06
 Reference value :  5.75834e-06
 Reference value :  5.75962e-06
 Reference value :  5.76362e-06
 Reference value :  5.77472e-06
 Reference value :  5.81913e-06
 Reference value :  5.99676e-06
 Reference value :  6.00001e-06
 Reference value :  6.00007e-06
 Reference value :  6.00011e-06
 Reference value :  6.00016e-06
 Reference value :  6.00022e-06
 Reference value :  6.00034e-06
 Reference value :  6.00052e-06
 Reference value :  6.00083e-06
 Reference value :  6.00158e-06
 Reference value :  6.00201e-06
 Reference value :  6.00242e-06
 Reference value :  6.00290e-06
 Reference value :  6.00390e-06
 Reference value :  6.00484e-06
 Reference value :  6.00592e-06
 Reference value :  6.00757e-06
 Reference value :  6.00933e-06
 Reference value :  6.01016e-06
 Reference value :  6.01113e-06
 Reference value :  6.01264e-06
 Reference value :  6.01349e-06
 Reference value :  6.01525e-06
 Reference value :  6.01629e-06
 Reference value :  6.01723e-06
 Reference value :  6.01877e-06
 Reference value :  6.02225e-06
 Reference value :  6.02411e-06
 Reference value :  6.02580e-06
 Reference value :  6.02764e-06
 Reference value :  6.03149e-06
 Reference value :  6.05211e-06
 Reference value :  6.16585e-06
 Reference value :  6.25010e-06
 Reference value :  6.25013e-06
 Reference value :  6.25020e-06
 Reference value :  6.25026e-06
 Reference value :  6.25045e-06
 Reference value :  6.25098e-06
 Reference value :  6.25140e-06
 Reference value :  6.25229e-06
 Reference value :  6.25345e-06
 Reference value :  6.25460e-06
 Reference value :  6.25740e-06
 Reference value :  6.26517e-06
 Reference value :  6.31511e-06
 Reference value :  6.50000e-06
 Reference value :  6.50007e-06
 Reference value :  6.50012e-06
 Reference value :  6.50022e-06
 Reference value :  6.50052e-06
 Reference value :  6.50083e-06
 Reference value :  6.50158e-06
 Reference value :  6.50242e-06
 Reference value :  6.50290e-06
 Reference value :  6.50399e-06
 Reference value :  6.50552e-06
 Reference value :  6.50616e-06
 Reference value :  6.50771e-06
 Reference value :  6.50956e-06
 Reference value :  6.51550e-06
 Reference value :  6.54717e-06
 Reference value :  6.65282e-06
 Reference value :  6.75010e-06
 Reference value :  6.75011e-06
 Reference value :  6.75013e-06
 Reference value :  6.75017e-06
 Reference value :  6.75020e-06
 Reference value :  6.75022e-06
 Reference value :  6.75032e-06
 Reference value :  6.75069e-06
 Reference value :  6.75139e-06
 Reference value :  6.75229e-06
 Reference value :  6.75299e-06
 Reference value :  6.75344e-06
 Reference value :  6.75448e-06
 Reference value :  6.75579e-06
 Reference value :  6.76027e-06
 Reference value :  6.76981e-06
 Reference value :  6.85700e-06
 Reference value :  7.00000e-06
 Reference value :  7.00003e-06
 Reference value :  7.00010e-06
 Reference value :  7.00012e-06
 Reference value :  7.00022e-06
 Reference value :  7.00052e-06
 Reference value :  7.00119e-06
 Reference value :  7.00158e-06
 Reference value :  7.00242e-06
 Reference value :  7.00289e-06
 Reference value :  7.00396e-06
 Reference value :  7.00450e-06
 Reference value :  7.00500e-06
 Reference value :  7.00632e-06
 Reference value :  7.00847e-06
 Reference value :  7.01120e-06
 Reference value :  7.01223e-06
 Reference value :  7.01428e-06
 Reference value :  7.01524e-06
 Reference value :  7.01625e-06
 Reference value :  7.01737e-06
 Reference value :  7.02074e-06
 Reference value :  7.03620e-06
 Reference value :  7.10714e-06
 Reference value :  7.25010e-06
 Reference value :  7.25013e-06
 Reference value :  7.25021e-06
 Reference value :  7.25032e-06
 Reference value :  7.25098e-06
 Reference value :  7.25140e-06
 Reference value :  7.25229e-06
 Reference value :  7.25299e-06
 Reference value :  7.25345e-06
 Reference value :  7.25461e-06
 Reference value :  7.25598e-06
 Reference value :  7.26165e-06
 Reference value :  7.28687e-06
 Reference value :  7.37334e-06
 Reference value :  7.50001e-06
 Reference value :  7.50010e-06
 Reference value :  7.50016e-06
 Reference value :  7.50034e-06
 Reference value :  7.50083e-06
 Reference value :  7.50158e-06
 Reference value :  7.50242e-06
 Reference value :  7.50290e-06
 Reference value :  7.50342e-06
 Reference value :  7.50474e-06
 Reference value :  7.50553e-06
 Reference value :  7.50616e-06
 Reference value :  7.50689e-06
 Reference value :  7.50771e-06
 Reference value :  7.50865e-06
 Reference value :  7.50955e-06
 Reference value :  7.51086e-06
 Reference value :  7.51248e-06
 Reference value :  7.52047e-06
 Reference value :  7.52951e-06
 Reference value :  7.58210e-06
 Reference value :  7.75010e-06
 Reference value :  7.75011e-06
 Reference value :  7.75017e-06
 Reference value :  7.75021e-06
 Reference value :  7.75032e-06
 Reference value :  7.75069e-06
 Reference value :  7.75139e-06
 Reference value :  7.75229e-06
 Reference value :  7.75344e-06
 Reference value :  7.75397e-06
 Reference value :  7.75502e-06
 Reference value :  7.75579e-06
 Reference value :  7.75823e-06
 Reference value :  7.76359e-06
 Reference value :  7.78233e-06
 Reference value :  7.85730e-06
 Reference value :  8.00000e-06
 Reference value :  8.00003e-06
 Reference value :  8.00007e-06
 Reference value :  8.00011e-06
 Reference value :  8.00012e-06
 Reference value :  8.00022e-06
 Reference value :  8.00034e-06
 Reference value :  8.00052e-06
 Reference value :  8.00119e-06
 Reference value :  8.00158e-06
 Reference value :  8.00242e-06
 Reference value :  8.00289e-06
 Reference value :  8.00341e-06
 Reference value :  8.00452e-06
 Reference value :  8.00503e-06
 Reference value :  8.00639e-06
 Reference value :  8.00795e-06
 Reference value :  8.00885e-06
 Reference value :  8.01176e-06
 Reference value :  8.02264e-06
 Reference value :  8.06464e-06
 Reference value :  8.23264e-06
 Reference value :  8.25011e-06
 Reference value :  8.25017e-06
 Reference value :  8.25021e-06
 Reference value :  8.25032e-06
 Reference value :  8.25070e-06
 Reference value :  8.25139e-06
 Reference value :  8.25228e-06
 Reference value :  8.25298e-06
 Reference value :  8.25364e-06
 Reference value :  8.25452e-06
 Reference value :  8.25535e-06
 Reference value :  8.25767e-06
 Reference value :  8.25919e-06
 Reference value :  8.26625e-06
 Reference value :  8.29144e-06
 Reference value :  8.38214e-06
 Reference value :  8.50001e-06
 Reference value :  8.50007e-06
 Reference value :  8.50010e-06
 Reference value :  8.50016e-06
 Reference value :  8.50035e-06
 Reference value :  8.50091e-06
 Reference value :  8.50135e-06
 Reference value :  8.50228e-06
 Reference value :  8.50335e-06
 Reference value :  8.50438e-06
 Reference value :  8.50548e-06
 Reference value :  8.50885e-06
 Reference value :  8.52169e-06
 Reference value :  8.52580e-06
 Reference value :  8.52876e-06
 Reference value :  8.53083e-06
 Reference value :  8.53262e-06
 Reference value :  8.53608e-06
 Reference value :  8.53716e-06
 Reference value :  8.53970e-06
 Reference value :  8.54408e-06
 Reference value :  8.54999e-06
 Reference value :  8.56433e-06
 Reference value :  8.58668e-06
 Reference value :  8.64270e-06
 Reference value :  8.71875e-06
 Reference value :  8.75011e-06
 Reference value :  8.75017e-06
 Reference value :  8.75022e-06
 Reference value :  8.75045e-06
 Reference value :  8.75098e-06
 Reference value :  8.75139e-06
 Reference value :  8.75229e-06
 Reference value :  8.75342e-06
 Reference value :  8.75457e-06
 Reference value :  8.75736e-06
 Reference value :  8.76496e-06
 Reference value :  8.81312e-06
 Reference value :  8.92088e-06
 Reference value :  9.00000e-06
No. of Data Rows : 1329
ngspice-44 done
