
Note: Compatibility modes selected: hs a


Circuit: ** sch_path: /home/ece/cace/sar-adc-using-sky130-pdk/runs/run_2025-09-09_18-25-35/parameters/dnl/run_0/sar_output_dnl.sch

option SCALE: Scale is set to 1e-06 for instance and model parameters
option SCALE: Scale is set to 1e-06 for instance and model parameters
option SCALE: Scale is set to 1e-06 for instance and model parameters
option SCALE: Scale is set to 1e-06 for instance and model parameters
Doing analysis at TEMP = 27.000000 and TNOM = 27.000000

Using KLU as Direct Linear Solver
Operating point simulation skipped by 'uic',
  now using transient initial conditions.
 Reference value :  1.00000e-12
 Reference value :  1.02772e-12
 Reference value :  1.08316e-12
 Reference value :  1.19404e-12
 Reference value :  1.33846e-12
 Reference value :  1.62729e-12
 Reference value :  2.20497e-12
 Reference value :  3.05056e-12
 Reference value :  3.95575e-12
 Reference value :  5.17261e-12
 Reference value :  6.90346e-12
 Reference value :  1.02194e-11
 Reference value :  1.39160e-11
 Reference value :  2.08122e-11
 Reference value :  2.75968e-11
 Reference value :  3.67005e-11
 Reference value :  4.77587e-11
 Reference value :  6.49009e-11
 Reference value :  8.51808e-11
 Reference value :  1.00000e-10
 Reference value :  1.01236e-10
 Reference value :  1.03707e-10
 Reference value :  1.08649e-10
 Reference value :  1.18534e-10
 Reference value :  1.38304e-10
 Reference value :  1.77843e-10
 Reference value :  2.56921e-10
 Reference value :  4.08741e-10
 Reference value :  5.72781e-10
 Reference value :  8.40101e-10
 Reference value :  1.20023e-09
 Reference value :  1.62625e-09
 Reference value :  2.28246e-09
 Reference value :  2.95620e-09
 Reference value :  4.02707e-09
 Reference value :  4.85881e-09
 Reference value :  5.73636e-09
 Reference value :  6.99310e-09
 Reference value :  8.17319e-09
 Reference value :  9.53233e-09
 Reference value :  1.04586e-08
 Reference value :  1.13358e-08
 Reference value :  1.22401e-08
 Reference value :  1.32414e-08
 Reference value :  1.52439e-08
 Reference value :  1.83681e-08
 Reference value :  2.21553e-08
 Reference value :  2.61341e-08
 Reference value :  2.97229e-08
 Reference value :  3.34318e-08
 Reference value :  3.66694e-08
 Reference value :  4.00799e-08
 Reference value :  4.49900e-08
 Reference value :  5.21257e-08
 Reference value :  6.38767e-08
 Reference value :  8.40894e-08
 Reference value :  1.21414e-07
 Reference value :  1.84161e-07
 Reference value :  2.50100e-07
 Reference value :  2.50110e-07
 Reference value :  2.50130e-07
 Reference value :  2.50170e-07
 Reference value :  2.50200e-07
 Reference value :  2.50201e-07
 Reference value :  2.50202e-07
 Reference value :  2.50204e-07
 Reference value :  2.50208e-07
 Reference value :  2.50216e-07
 Reference value :  2.50233e-07
 Reference value :  2.50267e-07
 Reference value :  2.50334e-07
 Reference value :  2.50416e-07
 Reference value :  2.50578e-07
 Reference value :  2.50740e-07
 Reference value :  2.51064e-07
 Reference value :  2.51433e-07
 Reference value :  2.52000e-07
 Reference value :  2.52605e-07
 Reference value :  2.53305e-07
 Reference value :  2.54251e-07
 Reference value :  2.55267e-07
 Reference value :  2.56209e-07
 Reference value :  2.57137e-07
 Reference value :  2.58161e-07
 Reference value :  2.59137e-07
 Reference value :  2.60806e-07
 Reference value :  2.63151e-07
 Reference value :  2.65566e-07
 Reference value :  2.69724e-07
 Reference value :  2.75757e-07
 Reference value :  2.87822e-07
 Reference value :  3.11952e-07
 Reference value :  3.56895e-07
 Reference value :  4.46781e-07
 Reference value :  5.00000e-07
 Reference value :  5.00010e-07
 Reference value :  5.00030e-07
 Reference value :  5.00070e-07
 Reference value :  5.00100e-07
 Reference value :  5.00104e-07
 Reference value :  5.00113e-07
 Reference value :  5.00130e-07
 Reference value :  5.00164e-07
 Reference value :  5.00231e-07
 Reference value :  5.00367e-07
 Reference value :  5.00555e-07
 Reference value :  5.00931e-07
 Reference value :  5.01441e-07
 Reference value :  5.01988e-07
 Reference value :  5.02572e-07
 Reference value :  5.03299e-07
 Reference value :  5.03988e-07
 Reference value :  5.04868e-07
 Reference value :  5.05732e-07
 Reference value :  5.06712e-07
 Reference value :  5.07962e-07
 Reference value :  5.09473e-07
 Reference value :  5.11506e-07
 Reference value :  5.13937e-07
 Reference value :  5.15835e-07
 Reference value :  5.17886e-07
 Reference value :  5.20499e-07
 Reference value :  5.23122e-07
 Reference value :  5.25907e-07
 Reference value :  5.31216e-07
 Reference value :  5.38400e-07
 Reference value :  5.48666e-07
 Reference value :  5.69196e-07
 Reference value :  5.99926e-07
 Reference value :  6.61385e-07
 Reference value :  7.50100e-07
 Reference value :  7.50110e-07
 Reference value :  7.50130e-07
 Reference value :  7.50170e-07
 Reference value :  7.50200e-07
 Reference value :  7.50201e-07
 Reference value :  7.50202e-07
 Reference value :  7.50205e-07
 Reference value :  7.50211e-07
 Reference value :  7.50223e-07
 Reference value :  7.50247e-07
 Reference value :  7.50295e-07
 Reference value :  7.50390e-07
 Reference value :  7.50580e-07
 Reference value :  7.50956e-07
 Reference value :  7.51478e-07
 Reference value :  7.52136e-07
 Reference value :  7.52787e-07
 Reference value :  7.53536e-07
 Reference value :  7.54575e-07
 Reference value :  7.55319e-07
 Reference value :  7.56167e-07
 Reference value :  7.56918e-07
 Reference value :  7.57752e-07
 Reference value :  7.58784e-07
 Reference value :  7.59912e-07
 Reference value :  7.62169e-07
 Reference value :  7.64635e-07
 Reference value :  7.68698e-07
 Reference value :  7.74006e-07
 Reference value :  7.84623e-07
 Reference value :  8.05856e-07
 Reference value :  8.48322e-07
 Reference value :  9.33255e-07
 Reference value :  1.00000e-06
 Reference value :  1.00001e-06
 Reference value :  1.00003e-06
 Reference value :  1.00007e-06
 Reference value :  1.00010e-06
 Reference value :  1.00010e-06
 Reference value :  1.00011e-06
 Reference value :  1.00013e-06
 Reference value :  1.00016e-06
 Reference value :  1.00023e-06
 Reference value :  1.00037e-06
 Reference value :  1.00055e-06
 Reference value :  1.00093e-06
 Reference value :  1.00144e-06
 Reference value :  1.00198e-06
 Reference value :  1.00256e-06
 Reference value :  1.00321e-06
 Reference value :  1.00388e-06
 Reference value :  1.00467e-06
 Reference value :  1.00549e-06
 Reference value :  1.00635e-06
 Reference value :  1.00731e-06
 Reference value :  1.00811e-06
 Reference value :  1.00905e-06
 Reference value :  1.00998e-06
 Reference value :  1.01119e-06
 Reference value :  1.01294e-06
 Reference value :  1.01554e-06
 Reference value :  1.01799e-06
 Reference value :  1.02017e-06
 Reference value :  1.02200e-06
 Reference value :  1.02397e-06
 Reference value :  1.02579e-06
 Reference value :  1.02762e-06
 Reference value :  1.02996e-06
 Reference value :  1.03217e-06
 Reference value :  1.03521e-06
 Reference value :  1.03941e-06
 Reference value :  1.04430e-06
 Reference value :  1.04932e-06
 Reference value :  1.05333e-06
 Reference value :  1.05741e-06
 Reference value :  1.06033e-06
 Reference value :  1.06411e-06
 Reference value :  1.06688e-06
 Reference value :  1.07000e-06
 Reference value :  1.07300e-06
 Reference value :  1.07649e-06
 Reference value :  1.08223e-06
 Reference value :  1.08955e-06
 Reference value :  1.09670e-06
 Reference value :  1.10426e-06
 Reference value :  1.11206e-06
 Reference value :  1.12767e-06
 Reference value :  1.15368e-06
 Reference value :  1.19835e-06
 Reference value :  1.25010e-06
 Reference value :  1.25011e-06
 Reference value :  1.25013e-06
 Reference value :  1.25017e-06
 Reference value :  1.25020e-06
 Reference value :  1.25020e-06
 Reference value :  1.25020e-06
 Reference value :  1.25021e-06
 Reference value :  1.25021e-06
 Reference value :  1.25022e-06
 Reference value :  1.25025e-06
 Reference value :  1.25029e-06
 Reference value :  1.25039e-06
 Reference value :  1.25058e-06
 Reference value :  1.25091e-06
 Reference value :  1.25146e-06
 Reference value :  1.25209e-06
 Reference value :  1.25276e-06
 Reference value :  1.25349e-06
 Reference value :  1.25452e-06
 Reference value :  1.25523e-06
 Reference value :  1.25605e-06
 Reference value :  1.25697e-06
 Reference value :  1.25790e-06
 Reference value :  1.25914e-06
 Reference value :  1.26117e-06
 Reference value :  1.26327e-06
 Reference value :  1.26657e-06
 Reference value :  1.27074e-06
 Reference value :  1.27908e-06
 Reference value :  1.29576e-06
 Reference value :  1.32540e-06
 Reference value :  1.38466e-06
 Reference value :  1.49867e-06
 Reference value :  1.50000e-06
 Reference value :  1.50001e-06
 Reference value :  1.50003e-06
 Reference value :  1.50007e-06
 Reference value :  1.50010e-06
 Reference value :  1.50010e-06
 Reference value :  1.50011e-06
 Reference value :  1.50013e-06
 Reference value :  1.50016e-06
 Reference value :  1.50023e-06
 Reference value :  1.50037e-06
 Reference value :  1.50054e-06
 Reference value :  1.50090e-06
 Reference value :  1.50141e-06
 Reference value :  1.50196e-06
 Reference value :  1.50251e-06
 Reference value :  1.50321e-06
 Reference value :  1.50385e-06
 Reference value :  1.50462e-06
 Reference value :  1.50544e-06
 Reference value :  1.50635e-06
 Reference value :  1.50757e-06
 Reference value :  1.50879e-06
 Reference value :  1.51013e-06
 Reference value :  1.51163e-06
 Reference value :  1.51310e-06
 Reference value :  1.51460e-06
 Reference value :  1.51619e-06
 Reference value :  1.51783e-06
 Reference value :  1.51964e-06
 Reference value :  1.52328e-06
 Reference value :  1.53055e-06
 Reference value :  1.54285e-06
 Reference value :  1.56745e-06
 Reference value :  1.61666e-06
 Reference value :  1.71507e-06
 Reference value :  1.75010e-06
 Reference value :  1.75011e-06
 Reference value :  1.75013e-06
 Reference value :  1.75017e-06
 Reference value :  1.75020e-06
 Reference value :  1.75020e-06
 Reference value :  1.75020e-06
 Reference value :  1.75021e-06
 Reference value :  1.75021e-06
 Reference value :  1.75022e-06
 Reference value :  1.75025e-06
 Reference value :  1.75029e-06
 Reference value :  1.75039e-06
 Reference value :  1.75058e-06
 Reference value :  1.75091e-06
 Reference value :  1.75146e-06
 Reference value :  1.75208e-06
 Reference value :  1.75275e-06
 Reference value :  1.75348e-06
 Reference value :  1.75451e-06
 Reference value :  1.75525e-06
 Reference value :  1.75610e-06
 Reference value :  1.75684e-06
 Reference value :  1.75767e-06
 Reference value :  1.75868e-06
 Reference value :  1.75980e-06
 Reference value :  1.76095e-06
 Reference value :  1.76261e-06
 Reference value :  1.76449e-06
 Reference value :  1.76700e-06
 Reference value :  1.77024e-06
 Reference value :  1.77488e-06
 Reference value :  1.78417e-06
 Reference value :  1.80075e-06
 Reference value :  1.83390e-06
 Reference value :  1.90019e-06
 Reference value :  2.00000e-06
 Reference value :  2.00001e-06
 Reference value :  2.00003e-06
 Reference value :  2.00007e-06
 Reference value :  2.00010e-06
 Reference value :  2.00010e-06
 Reference value :  2.00011e-06
 Reference value :  2.00013e-06
 Reference value :  2.00016e-06
 Reference value :  2.00023e-06
 Reference value :  2.00037e-06
 Reference value :  2.00054e-06
 Reference value :  2.00090e-06
 Reference value :  2.00141e-06
 Reference value :  2.00196e-06
 Reference value :  2.00255e-06
 Reference value :  2.00319e-06
 Reference value :  2.00387e-06
 Reference value :  2.00463e-06
 Reference value :  2.00544e-06
 Reference value :  2.00621e-06
 Reference value :  2.00702e-06
 Reference value :  2.00787e-06
 Reference value :  2.00875e-06
 Reference value :  2.00965e-06
 Reference value :  2.01103e-06
 Reference value :  2.01234e-06
 Reference value :  2.01426e-06
 Reference value :  2.01622e-06
 Reference value :  2.01808e-06
 Reference value :  2.02011e-06
 Reference value :  2.02175e-06
 Reference value :  2.02354e-06
 Reference value :  2.02526e-06
 Reference value :  2.02703e-06
 Reference value :  2.02922e-06
 Reference value :  2.03122e-06
 Reference value :  2.03442e-06
 Reference value :  2.03849e-06
 Reference value :  2.04651e-06
 Reference value :  2.06099e-06
 Reference value :  2.08663e-06
 Reference value :  2.13262e-06
 Reference value :  2.18063e-06
 Reference value :  2.25010e-06
 Reference value :  2.25011e-06
 Reference value :  2.25013e-06
 Reference value :  2.25017e-06
 Reference value :  2.25020e-06
 Reference value :  2.25020e-06
 Reference value :  2.25020e-06
 Reference value :  2.25021e-06
 Reference value :  2.25021e-06
 Reference value :  2.25022e-06
 Reference value :  2.25025e-06
 Reference value :  2.25029e-06
 Reference value :  2.25039e-06
 Reference value :  2.25058e-06
 Reference value :  2.25091e-06
 Reference value :  2.25146e-06
 Reference value :  2.25208e-06
 Reference value :  2.25275e-06
 Reference value :  2.25348e-06
 Reference value :  2.25450e-06
 Reference value :  2.25524e-06
 Reference value :  2.25608e-06
 Reference value :  2.25696e-06
 Reference value :  2.25788e-06
 Reference value :  2.25915e-06
 Reference value :  2.26097e-06
 Reference value :  2.26315e-06
 Reference value :  2.26626e-06
 Reference value :  2.27050e-06
 Reference value :  2.27898e-06
 Reference value :  2.29593e-06
 Reference value :  2.32530e-06
 Reference value :  2.38405e-06
 Reference value :  2.44496e-06
 Reference value :  2.50000e-06
 Reference value :  2.50001e-06
 Reference value :  2.50003e-06
 Reference value :  2.50007e-06
 Reference value :  2.50010e-06
 Reference value :  2.50010e-06
 Reference value :  2.50011e-06
 Reference value :  2.50013e-06
 Reference value :  2.50016e-06
 Reference value :  2.50023e-06
 Reference value :  2.50037e-06
 Reference value :  2.50054e-06
 Reference value :  2.50090e-06
 Reference value :  2.50141e-06
 Reference value :  2.50196e-06
 Reference value :  2.50251e-06
 Reference value :  2.50321e-06
 Reference value :  2.50385e-06
 Reference value :  2.50462e-06
 Reference value :  2.50543e-06
 Reference value :  2.50634e-06
 Reference value :  2.50757e-06
 Reference value :  2.50879e-06
 Reference value :  2.51012e-06
 Reference value :  2.51161e-06
 Reference value :  2.51308e-06
 Reference value :  2.51454e-06
 Reference value :  2.51610e-06
 Reference value :  2.51768e-06
 Reference value :  2.51946e-06
 Reference value :  2.52303e-06
 Reference value :  2.53016e-06
 Reference value :  2.54265e-06
 Reference value :  2.56764e-06
 Reference value :  2.61761e-06
 Reference value :  2.71756e-06
 Reference value :  2.75010e-06
 Reference value :  2.75011e-06
 Reference value :  2.75013e-06
 Reference value :  2.75017e-06
 Reference value :  2.75020e-06
 Reference value :  2.75020e-06
 Reference value :  2.75020e-06
 Reference value :  2.75021e-06
 Reference value :  2.75021e-06
 Reference value :  2.75022e-06
 Reference value :  2.75025e-06
 Reference value :  2.75029e-06
 Reference value :  2.75039e-06
 Reference value :  2.75058e-06
 Reference value :  2.75091e-06
 Reference value :  2.75145e-06
 Reference value :  2.75208e-06
 Reference value :  2.75275e-06
 Reference value :  2.75348e-06
 Reference value :  2.75450e-06
 Reference value :  2.75524e-06
 Reference value :  2.75609e-06
 Reference value :  2.75683e-06
 Reference value :  2.75766e-06
 Reference value :  2.75867e-06
 Reference value :  2.75979e-06
 Reference value :  2.76092e-06
 Reference value :  2.76260e-06
 Reference value :  2.76445e-06
 Reference value :  2.76697e-06
 Reference value :  2.77017e-06
 Reference value :  2.77478e-06
 Reference value :  2.78402e-06
 Reference value :  2.79918e-06
 Reference value :  2.82950e-06
 Reference value :  2.89014e-06
 Reference value :  3.00000e-06
 Reference value :  3.00001e-06
 Reference value :  3.00003e-06
 Reference value :  3.00007e-06
 Reference value :  3.00010e-06
 Reference value :  3.00010e-06
 Reference value :  3.00011e-06
 Reference value :  3.00013e-06
 Reference value :  3.00016e-06
 Reference value :  3.00023e-06
 Reference value :  3.00037e-06
 Reference value :  3.00054e-06
 Reference value :  3.00090e-06
 Reference value :  3.00141e-06
 Reference value :  3.00196e-06
 Reference value :  3.00254e-06
 Reference value :  3.00319e-06
 Reference value :  3.00387e-06
 Reference value :  3.00463e-06
 Reference value :  3.00544e-06
 Reference value :  3.00628e-06
 Reference value :  3.00707e-06
 Reference value :  3.00795e-06
 Reference value :  3.00886e-06
 Reference value :  3.00978e-06
 Reference value :  3.01109e-06
 Reference value :  3.01259e-06
 Reference value :  3.01473e-06
 Reference value :  3.01630e-06
 Reference value :  3.01799e-06
 Reference value :  3.01978e-06
 Reference value :  3.02119e-06
 Reference value :  3.02259e-06
 Reference value :  3.02426e-06
 Reference value :  3.02586e-06
 Reference value :  3.02734e-06
 Reference value :  3.02929e-06
 Reference value :  3.03172e-06
 Reference value :  3.03435e-06
 Reference value :  3.03891e-06
 Reference value :  3.04516e-06
 Reference value :  3.05539e-06
 Reference value :  3.07236e-06
 Reference value :  3.09934e-06
 Reference value :  3.14132e-06
 Reference value :  3.17100e-06
 Reference value :  3.20518e-06
 Reference value :  3.22598e-06
 Reference value :  3.24627e-06
 Reference value :  3.25010e-06
 Reference value :  3.25011e-06
 Reference value :  3.25013e-06
 Reference value :  3.25017e-06
 Reference value :  3.25020e-06
 Reference value :  3.25020e-06
 Reference value :  3.25020e-06
 Reference value :  3.25021e-06
 Reference value :  3.25021e-06
 Reference value :  3.25022e-06
 Reference value :  3.25025e-06
 Reference value :  3.25030e-06
 Reference value :  3.25039e-06
 Reference value :  3.25059e-06
 Reference value :  3.25093e-06
 Reference value :  3.25146e-06
 Reference value :  3.25210e-06
 Reference value :  3.25276e-06
 Reference value :  3.25349e-06
 Reference value :  3.25452e-06
 Reference value :  3.25524e-06
 Reference value :  3.25608e-06
 Reference value :  3.25697e-06
 Reference value :  3.25788e-06
 Reference value :  3.25915e-06
 Reference value :  3.26099e-06
 Reference value :  3.26316e-06
 Reference value :  3.26630e-06
 Reference value :  3.27053e-06
 Reference value :  3.27897e-06
 Reference value :  3.29587e-06
 Reference value :  3.32518e-06
 Reference value :  3.38381e-06
 Reference value :  3.49514e-06
 Reference value :  3.50000e-06
 Reference value :  3.50001e-06
 Reference value :  3.50003e-06
 Reference value :  3.50007e-06
 Reference value :  3.50010e-06
 Reference value :  3.50010e-06
 Reference value :  3.50011e-06
 Reference value :  3.50013e-06
 Reference value :  3.50016e-06
 Reference value :  3.50023e-06
 Reference value :  3.50037e-06
 Reference value :  3.50054e-06
 Reference value :  3.50090e-06
 Reference value :  3.50141e-06
 Reference value :  3.50196e-06
 Reference value :  3.50251e-06
 Reference value :  3.50321e-06
 Reference value :  3.50385e-06
 Reference value :  3.50462e-06
 Reference value :  3.50543e-06
 Reference value :  3.50629e-06
 Reference value :  3.50753e-06
 Reference value :  3.50871e-06
 Reference value :  3.51007e-06
 Reference value :  3.51160e-06
 Reference value :  3.51301e-06
 Reference value :  3.51436e-06
 Reference value :  3.51585e-06
 Reference value :  3.51733e-06
 Reference value :  3.51906e-06
 Reference value :  3.52251e-06
 Reference value :  3.52820e-06
 Reference value :  3.53959e-06
 Reference value :  3.56237e-06
 Reference value :  3.60791e-06
 Reference value :  3.69901e-06
 Reference value :  3.75010e-06
 Reference value :  3.75011e-06
 Reference value :  3.75013e-06
 Reference value :  3.75017e-06
 Reference value :  3.75020e-06
 Reference value :  3.75020e-06
 Reference value :  3.75020e-06
 Reference value :  3.75021e-06
 Reference value :  3.75021e-06
 Reference value :  3.75022e-06
 Reference value :  3.75025e-06
 Reference value :  3.75029e-06
 Reference value :  3.75039e-06
 Reference value :  3.75058e-06
 Reference value :  3.75091e-06
 Reference value :  3.75145e-06
 Reference value :  3.75208e-06
 Reference value :  3.75275e-06
 Reference value :  3.75348e-06
 Reference value :  3.75450e-06
 Reference value :  3.75524e-06
 Reference value :  3.75609e-06
 Reference value :  3.75684e-06
 Reference value :  3.75766e-06
 Reference value :  3.75867e-06
 Reference value :  3.75979e-06
 Reference value :  3.76093e-06
 Reference value :  3.76260e-06
 Reference value :  3.76447e-06
 Reference value :  3.76699e-06
 Reference value :  3.77021e-06
 Reference value :  3.77484e-06
 Reference value :  3.78411e-06
 Reference value :  3.80015e-06
 Reference value :  3.83223e-06
 Reference value :  3.89640e-06
 Reference value :  4.00000e-06
 Reference value :  4.00001e-06
 Reference value :  4.00003e-06
 Reference value :  4.00007e-06
 Reference value :  4.00010e-06
 Reference value :  4.00010e-06
 Reference value :  4.00011e-06
 Reference value :  4.00013e-06
 Reference value :  4.00016e-06
 Reference value :  4.00023e-06
 Reference value :  4.00037e-06
 Reference value :  4.00054e-06
 Reference value :  4.00090e-06
 Reference value :  4.00141e-06
 Reference value :  4.00196e-06
 Reference value :  4.00254e-06
 Reference value :  4.00319e-06
 Reference value :  4.00387e-06
 Reference value :  4.00463e-06
 Reference value :  4.00544e-06
 Reference value :  4.00622e-06
 Reference value :  4.00702e-06
 Reference value :  4.00788e-06
 Reference value :  4.00878e-06
 Reference value :  4.00969e-06
 Reference value :  4.01097e-06
 Reference value :  4.01246e-06
 Reference value :  4.01389e-06
 Reference value :  4.01545e-06
 Reference value :  4.01724e-06
 Reference value :  4.01886e-06
 Reference value :  4.02057e-06
 Reference value :  4.02181e-06
 Reference value :  4.02320e-06
 Reference value :  4.02454e-06
 Reference value :  4.02597e-06
 Reference value :  4.02767e-06
 Reference value :  4.02935e-06
 Reference value :  4.03224e-06
 Reference value :  4.03491e-06
 Reference value :  4.04026e-06
 Reference value :  4.05063e-06
 Reference value :  4.06051e-06
 Reference value :  4.06988e-06
 Reference value :  4.07595e-06
 Reference value :  4.08206e-06
 Reference value :  4.08561e-06
 Reference value :  4.09001e-06
 Reference value :  4.09784e-06
 Reference value :  4.10564e-06
 Reference value :  4.12069e-06
 Reference value :  4.13685e-06
 Reference value :  4.16722e-06
 Reference value :  4.19708e-06
 Reference value :  4.24901e-06
 Reference value :  4.25010e-06
 Reference value :  4.25011e-06
 Reference value :  4.25013e-06
 Reference value :  4.25017e-06
 Reference value :  4.25020e-06
 Reference value :  4.25020e-06
 Reference value :  4.25020e-06
 Reference value :  4.25021e-06
 Reference value :  4.25021e-06
 Reference value :  4.25022e-06
 Reference value :  4.25025e-06
 Reference value :  4.25030e-06
 Reference value :  4.25039e-06
 Reference value :  4.25059e-06
 Reference value :  4.25092e-06
 Reference value :  4.25146e-06
 Reference value :  4.25210e-06
 Reference value :  4.25275e-06
 Reference value :  4.25349e-06
 Reference value :  4.25451e-06
 Reference value :  4.25526e-06
 Reference value :  4.25611e-06
 Reference value :  4.25699e-06
 Reference value :  4.25791e-06
 Reference value :  4.25921e-06
 Reference value :  4.26099e-06
 Reference value :  4.26322e-06
 Reference value :  4.26633e-06
 Reference value :  4.27064e-06
 Reference value :  4.27926e-06
 Reference value :  4.29621e-06
 Reference value :  4.32548e-06
 Reference value :  4.38402e-06
 Reference value :  4.49771e-06
 Reference value :  4.50000e-06
 Reference value :  4.50001e-06
 Reference value :  4.50003e-06
 Reference value :  4.50007e-06
 Reference value :  4.50010e-06
 Reference value :  4.50010e-06
 Reference value :  4.50011e-06
 Reference value :  4.50013e-06
 Reference value :  4.50016e-06
 Reference value :  4.50023e-06
 Reference value :  4.50037e-06
 Reference value :  4.50054e-06
 Reference value :  4.50090e-06
 Reference value :  4.50141e-06
 Reference value :  4.50196e-06
 Reference value :  4.50255e-06
 Reference value :  4.50319e-06
 Reference value :  4.50387e-06
 Reference value :  4.50464e-06
 Reference value :  4.50546e-06
 Reference value :  4.50632e-06
 Reference value :  4.50752e-06
 Reference value :  4.50871e-06
 Reference value :  4.50993e-06
 Reference value :  4.51126e-06
 Reference value :  4.51285e-06
 Reference value :  4.51434e-06
 Reference value :  4.51580e-06
 Reference value :  4.51737e-06
 Reference value :  4.51916e-06
 Reference value :  4.52239e-06
 Reference value :  4.52724e-06
 Reference value :  4.53695e-06
 Reference value :  4.55579e-06
 Reference value :  4.59266e-06
 Reference value :  4.66641e-06
 Reference value :  4.75010e-06
 Reference value :  4.75011e-06
 Reference value :  4.75013e-06
 Reference value :  4.75017e-06
 Reference value :  4.75020e-06
 Reference value :  4.75020e-06
 Reference value :  4.75020e-06
 Reference value :  4.75021e-06
 Reference value :  4.75021e-06
 Reference value :  4.75022e-06
 Reference value :  4.75025e-06
 Reference value :  4.75029e-06
 Reference value :  4.75039e-06
 Reference value :  4.75058e-06
 Reference value :  4.75091e-06
 Reference value :  4.75145e-06
 Reference value :  4.75208e-06
 Reference value :  4.75274e-06
 Reference value :  4.75347e-06
 Reference value :  4.75449e-06
 Reference value :  4.75522e-06
 Reference value :  4.75608e-06
 Reference value :  4.75682e-06
 Reference value :  4.75764e-06
 Reference value :  4.75865e-06
 Reference value :  4.75976e-06
 Reference value :  4.76200e-06
 Reference value :  4.76435e-06
 Reference value :  4.76832e-06
 Reference value :  4.77323e-06
 Reference value :  4.78305e-06
 Reference value :  4.80270e-06
 Reference value :  4.84080e-06
 Reference value :  4.91700e-06
 Reference value :  5.00000e-06
 Reference value :  5.00001e-06
 Reference value :  5.00003e-06
 Reference value :  5.00007e-06
 Reference value :  5.00010e-06
 Reference value :  5.00010e-06
 Reference value :  5.00011e-06
 Reference value :  5.00013e-06
 Reference value :  5.00016e-06
 Reference value :  5.00023e-06
 Reference value :  5.00037e-06
 Reference value :  5.00054e-06
 Reference value :  5.00090e-06
 Reference value :  5.00141e-06
 Reference value :  5.00196e-06
 Reference value :  5.00254e-06
 Reference value :  5.00320e-06
 Reference value :  5.00389e-06
 Reference value :  5.00465e-06
 Reference value :  5.00547e-06
 Reference value :  5.00636e-06
 Reference value :  5.00731e-06
 Reference value :  5.00809e-06
 Reference value :  5.00899e-06
 Reference value :  5.00996e-06
 Reference value :  5.01112e-06
 Reference value :  5.01297e-06
 Reference value :  5.01549e-06
 Reference value :  5.01798e-06
 Reference value :  5.02018e-06
 Reference value :  5.02189e-06
 Reference value :  5.02349e-06
 Reference value :  5.02507e-06
 Reference value :  5.02678e-06
 Reference value :  5.02870e-06
 Reference value :  5.03072e-06
 Reference value :  5.03339e-06
 Reference value :  5.03711e-06
 Reference value :  5.04286e-06
 Reference value :  5.04889e-06
 Reference value :  5.05505e-06
 Reference value :  5.06111e-06
 Reference value :  5.06669e-06
 Reference value :  5.07294e-06
 Reference value :  5.07911e-06
 Reference value :  5.08676e-06
 Reference value :  5.09320e-06
 Reference value :  5.10098e-06
 Reference value :  5.11270e-06
 Reference value :  5.13615e-06
 Reference value :  5.17363e-06
 Reference value :  5.24753e-06
 Reference value :  5.25010e-06
 Reference value :  5.25011e-06
 Reference value :  5.25013e-06
 Reference value :  5.25017e-06
 Reference value :  5.25020e-06
 Reference value :  5.25020e-06
 Reference value :  5.25020e-06
 Reference value :  5.25021e-06
 Reference value :  5.25021e-06
 Reference value :  5.25022e-06
 Reference value :  5.25025e-06
 Reference value :  5.25029e-06
 Reference value :  5.25039e-06
 Reference value :  5.25058e-06
 Reference value :  5.25091e-06
 Reference value :  5.25145e-06
 Reference value :  5.25207e-06
 Reference value :  5.25274e-06
 Reference value :  5.25347e-06
 Reference value :  5.25449e-06
 Reference value :  5.25521e-06
 Reference value :  5.25604e-06
 Reference value :  5.25692e-06
 Reference value :  5.25783e-06
 Reference value :  5.25910e-06
 Reference value :  5.26096e-06
 Reference value :  5.26314e-06
 Reference value :  5.26622e-06
 Reference value :  5.27046e-06
 Reference value :  5.27894e-06
 Reference value :  5.29574e-06
 Reference value :  5.32461e-06
 Reference value :  5.38235e-06
 Reference value :  5.49782e-06
 Reference value :  5.50000e-06
 Reference value :  5.50001e-06
 Reference value :  5.50003e-06
 Reference value :  5.50007e-06
 Reference value :  5.50010e-06
 Reference value :  5.50010e-06
 Reference value :  5.50011e-06
 Reference value :  5.50013e-06
 Reference value :  5.50016e-06
 Reference value :  5.50023e-06
 Reference value :  5.50037e-06
 Reference value :  5.50054e-06
 Reference value :  5.50090e-06
 Reference value :  5.50141e-06
 Reference value :  5.50196e-06
 Reference value :  5.50251e-06
 Reference value :  5.50321e-06
 Reference value :  5.50385e-06
 Reference value :  5.50462e-06
 Reference value :  5.50544e-06
 Reference value :  5.50635e-06
 Reference value :  5.50757e-06
 Reference value :  5.50879e-06
 Reference value :  5.51004e-06
 Reference value :  5.51138e-06
 Reference value :  5.51301e-06
 Reference value :  5.51452e-06
 Reference value :  5.51605e-06
 Reference value :  5.51782e-06
 Reference value :  5.51979e-06
 Reference value :  5.52321e-06
 Reference value :  5.52823e-06
 Reference value :  5.53745e-06
 Reference value :  5.55443e-06
 Reference value :  5.58540e-06
 Reference value :  5.64587e-06
 Reference value :  5.75010e-06
 Reference value :  5.75011e-06
 Reference value :  5.75013e-06
 Reference value :  5.75017e-06
 Reference value :  5.75020e-06
 Reference value :  5.75020e-06
 Reference value :  5.75020e-06
 Reference value :  5.75021e-06
 Reference value :  5.75021e-06
 Reference value :  5.75022e-06
 Reference value :  5.75025e-06
 Reference value :  5.75029e-06
 Reference value :  5.75039e-06
 Reference value :  5.75058e-06
 Reference value :  5.75091e-06
 Reference value :  5.75145e-06
 Reference value :  5.75208e-06
 Reference value :  5.75274e-06
 Reference value :  5.75347e-06
 Reference value :  5.75449e-06
 Reference value :  5.75523e-06
 Reference value :  5.75609e-06
 Reference value :  5.75684e-06
 Reference value :  5.75766e-06
 Reference value :  5.75867e-06
 Reference value :  5.75978e-06
 Reference value :  5.76093e-06
 Reference value :  5.76258e-06
 Reference value :  5.76446e-06
 Reference value :  5.76697e-06
 Reference value :  5.77019e-06
 Reference value :  5.77481e-06
 Reference value :  5.78405e-06
 Reference value :  5.80042e-06
 Reference value :  5.83317e-06
 Reference value :  5.89865e-06
 Reference value :  6.00000e-06
 Reference value :  6.00001e-06
 Reference value :  6.00003e-06
 Reference value :  6.00007e-06
 Reference value :  6.00010e-06
 Reference value :  6.00010e-06
 Reference value :  6.00011e-06
 Reference value :  6.00013e-06
 Reference value :  6.00016e-06
 Reference value :  6.00023e-06
 Reference value :  6.00037e-06
 Reference value :  6.00054e-06
 Reference value :  6.00090e-06
 Reference value :  6.00141e-06
 Reference value :  6.00196e-06
 Reference value :  6.00255e-06
 Reference value :  6.00319e-06
 Reference value :  6.00387e-06
 Reference value :  6.00463e-06
 Reference value :  6.00544e-06
 Reference value :  6.00629e-06
 Reference value :  6.00708e-06
 Reference value :  6.00782e-06
 Reference value :  6.00867e-06
 Reference value :  6.00957e-06
 Reference value :  6.01070e-06
 Reference value :  6.01224e-06
 Reference value :  6.01382e-06
 Reference value :  6.01536e-06
 Reference value :  6.01717e-06
 Reference value :  6.01884e-06
 Reference value :  6.02054e-06
 Reference value :  6.02178e-06
 Reference value :  6.02292e-06
 Reference value :  6.02417e-06
 Reference value :  6.02558e-06
 Reference value :  6.02686e-06
 Reference value :  6.02845e-06
 Reference value :  6.03076e-06
 Reference value :  6.03303e-06
 Reference value :  6.03710e-06
 Reference value :  6.04328e-06
 Reference value :  6.05244e-06
 Reference value :  6.06168e-06
 Reference value :  6.07260e-06
 Reference value :  6.08799e-06
 Reference value :  6.11879e-06
 Reference value :  6.17565e-06
 Reference value :  6.23558e-06
 Reference value :  6.25010e-06
 Reference value :  6.25011e-06
 Reference value :  6.25013e-06
 Reference value :  6.25017e-06
 Reference value :  6.25020e-06
 Reference value :  6.25020e-06
 Reference value :  6.25020e-06
 Reference value :  6.25021e-06
 Reference value :  6.25021e-06
 Reference value :  6.25022e-06
 Reference value :  6.25025e-06
 Reference value :  6.25030e-06
 Reference value :  6.25039e-06
 Reference value :  6.25059e-06
 Reference value :  6.25093e-06
 Reference value :  6.25146e-06
 Reference value :  6.25210e-06
 Reference value :  6.25275e-06
 Reference value :  6.25349e-06
 Reference value :  6.25451e-06
 Reference value :  6.25524e-06
 Reference value :  6.25608e-06
 Reference value :  6.25696e-06
 Reference value :  6.25787e-06
 Reference value :  6.25914e-06
 Reference value :  6.26097e-06
 Reference value :  6.26314e-06
 Reference value :  6.26626e-06
 Reference value :  6.27049e-06
 Reference value :  6.27896e-06
 Reference value :  6.29583e-06
 Reference value :  6.32468e-06
 Reference value :  6.38237e-06
 Reference value :  6.49775e-06
 Reference value :  6.50000e-06
 Reference value :  6.50001e-06
 Reference value :  6.50003e-06
 Reference value :  6.50007e-06
 Reference value :  6.50010e-06
 Reference value :  6.50010e-06
 Reference value :  6.50011e-06
 Reference value :  6.50013e-06
 Reference value :  6.50016e-06
 Reference value :  6.50023e-06
 Reference value :  6.50037e-06
 Reference value :  6.50054e-06
 Reference value :  6.50090e-06
 Reference value :  6.50141e-06
 Reference value :  6.50196e-06
 Reference value :  6.50251e-06
 Reference value :  6.50320e-06
 Reference value :  6.50385e-06
 Reference value :  6.50462e-06
 Reference value :  6.50543e-06
 Reference value :  6.50629e-06
 Reference value :  6.50753e-06
 Reference value :  6.50871e-06
 Reference value :  6.51008e-06
 Reference value :  6.51161e-06
 Reference value :  6.51300e-06
 Reference value :  6.51441e-06
 Reference value :  6.51591e-06
 Reference value :  6.51760e-06
 Reference value :  6.51951e-06
 Reference value :  6.52300e-06
 Reference value :  6.52808e-06
 Reference value :  6.53781e-06
 Reference value :  6.55592e-06
 Reference value :  6.58944e-06
 Reference value :  6.65542e-06
 Reference value :  6.75010e-06
 Reference value :  6.75011e-06
 Reference value :  6.75013e-06
 Reference value :  6.75017e-06
 Reference value :  6.75020e-06
 Reference value :  6.75020e-06
 Reference value :  6.75020e-06
 Reference value :  6.75021e-06
 Reference value :  6.75021e-06
 Reference value :  6.75022e-06
 Reference value :  6.75025e-06
 Reference value :  6.75029e-06
 Reference value :  6.75039e-06
 Reference value :  6.75058e-06
 Reference value :  6.75091e-06
 Reference value :  6.75145e-06
 Reference value :  6.75208e-06
 Reference value :  6.75275e-06
 Reference value :  6.75348e-06
 Reference value :  6.75450e-06
 Reference value :  6.75523e-06
 Reference value :  6.75609e-06
 Reference value :  6.75683e-06
 Reference value :  6.75766e-06
 Reference value :  6.75867e-06
 Reference value :  6.75978e-06
 Reference value :  6.76093e-06
 Reference value :  6.76259e-06
 Reference value :  6.76446e-06
 Reference value :  6.76697e-06
 Reference value :  6.77019e-06
 Reference value :  6.77482e-06
 Reference value :  6.78407e-06
 Reference value :  6.80014e-06
 Reference value :  6.83229e-06
 Reference value :  6.89658e-06
 Reference value :  7.00000e-06
 Reference value :  7.00001e-06
 Reference value :  7.00003e-06
 Reference value :  7.00007e-06
 Reference value :  7.00010e-06
 Reference value :  7.00010e-06
 Reference value :  7.00011e-06
 Reference value :  7.00013e-06
 Reference value :  7.00016e-06
 Reference value :  7.00023e-06
 Reference value :  7.00037e-06
 Reference value :  7.00054e-06
 Reference value :  7.00090e-06
 Reference value :  7.00141e-06
 Reference value :  7.00196e-06
 Reference value :  7.00254e-06
 Reference value :  7.00319e-06
 Reference value :  7.00387e-06
 Reference value :  7.00463e-06
 Reference value :  7.00544e-06
 Reference value :  7.00622e-06
 Reference value :  7.00703e-06
 Reference value :  7.00782e-06
 Reference value :  7.00872e-06
 Reference value :  7.00960e-06
 Reference value :  7.01079e-06
 Reference value :  7.01245e-06
 Reference value :  7.01423e-06
 Reference value :  7.01578e-06
 Reference value :  7.01739e-06
 Reference value :  7.01888e-06
 Reference value :  7.02051e-06
 Reference value :  7.02175e-06
 Reference value :  7.02294e-06
 Reference value :  7.02441e-06
 Reference value :  7.02588e-06
 Reference value :  7.02725e-06
 Reference value :  7.02900e-06
 Reference value :  7.03146e-06
 Reference value :  7.03383e-06
 Reference value :  7.03830e-06
 Reference value :  7.04467e-06
 Reference value :  7.05200e-06
 Reference value :  7.06304e-06
 Reference value :  7.08513e-06
 Reference value :  7.11666e-06
 Reference value :  7.16202e-06
 Reference value :  7.20792e-06
 Reference value :  7.25010e-06
 Reference value :  7.25011e-06
 Reference value :  7.25013e-06
 Reference value :  7.25017e-06
 Reference value :  7.25020e-06
 Reference value :  7.25020e-06
 Reference value :  7.25020e-06
 Reference value :  7.25021e-06
 Reference value :  7.25021e-06
 Reference value :  7.25022e-06
 Reference value :  7.25025e-06
 Reference value :  7.25029e-06
 Reference value :  7.25039e-06
 Reference value :  7.25058e-06
 Reference value :  7.25092e-06
 Reference value :  7.25146e-06
 Reference value :  7.25209e-06
 Reference value :  7.25275e-06
 Reference value :  7.25348e-06
 Reference value :  7.25450e-06
 Reference value :  7.25522e-06
 Reference value :  7.25605e-06
 Reference value :  7.25693e-06
 Reference value :  7.25784e-06
 Reference value :  7.25910e-06
 Reference value :  7.26098e-06
 Reference value :  7.26314e-06
 Reference value :  7.26625e-06
 Reference value :  7.27048e-06
 Reference value :  7.27892e-06
 Reference value :  7.29573e-06
 Reference value :  7.32442e-06
 Reference value :  7.38181e-06
 Reference value :  7.49657e-06
 Reference value :  7.50000e-06
 Reference value :  7.50001e-06
 Reference value :  7.50003e-06
 Reference value :  7.50007e-06
 Reference value :  7.50010e-06
 Reference value :  7.50010e-06
 Reference value :  7.50011e-06
 Reference value :  7.50013e-06
 Reference value :  7.50016e-06
 Reference value :  7.50023e-06
 Reference value :  7.50037e-06
 Reference value :  7.50055e-06
 Reference value :  7.50091e-06
 Reference value :  7.50141e-06
 Reference value :  7.50195e-06
 Reference value :  7.50249e-06
 Reference value :  7.50318e-06
 Reference value :  7.50383e-06
 Reference value :  7.50461e-06
 Reference value :  7.50542e-06
 Reference value :  7.50634e-06
 Reference value :  7.50755e-06
 Reference value :  7.50878e-06
 Reference value :  7.51016e-06
 Reference value :  7.51170e-06
 Reference value :  7.51312e-06
 Reference value :  7.51448e-06
 Reference value :  7.51596e-06
 Reference value :  7.51751e-06
 Reference value :  7.51928e-06
 Reference value :  7.52272e-06
 Reference value :  7.52767e-06
 Reference value :  7.53756e-06
 Reference value :  7.55733e-06
 Reference value :  7.59461e-06
 Reference value :  7.66916e-06
 Reference value :  7.75010e-06
 Reference value :  7.75011e-06
 Reference value :  7.75013e-06
 Reference value :  7.75017e-06
 Reference value :  7.75020e-06
 Reference value :  7.75020e-06
 Reference value :  7.75020e-06
 Reference value :  7.75021e-06
 Reference value :  7.75021e-06
 Reference value :  7.75022e-06
 Reference value :  7.75025e-06
 Reference value :  7.75029e-06
 Reference value :  7.75039e-06
 Reference value :  7.75058e-06
 Reference value :  7.75092e-06
 Reference value :  7.75145e-06
 Reference value :  7.75209e-06
 Reference value :  7.75275e-06
 Reference value :  7.75348e-06
 Reference value :  7.75450e-06
 Reference value :  7.75522e-06
 Reference value :  7.75606e-06
 Reference value :  7.75680e-06
 Reference value :  7.75762e-06
 Reference value :  7.75862e-06
 Reference value :  7.75974e-06
 Reference value :  7.76087e-06
 Reference value :  7.76255e-06
 Reference value :  7.76438e-06
 Reference value :  7.76691e-06
 Reference value :  7.77010e-06
 Reference value :  7.77471e-06
 Reference value :  7.78393e-06
 Reference value :  7.79944e-06
 Reference value :  7.83047e-06
 Reference value :  7.89253e-06
 Reference value :  8.00000e-06
 Reference value :  8.00001e-06
 Reference value :  8.00003e-06
 Reference value :  8.00007e-06
 Reference value :  8.00010e-06
 Reference value :  8.00010e-06
 Reference value :  8.00011e-06
 Reference value :  8.00013e-06
 Reference value :  8.00016e-06
 Reference value :  8.00023e-06
 Reference value :  8.00037e-06
 Reference value :  8.00055e-06
 Reference value :  8.00090e-06
 Reference value :  8.00141e-06
 Reference value :  8.00195e-06
 Reference value :  8.00253e-06
 Reference value :  8.00325e-06
 Reference value :  8.00390e-06
 Reference value :  8.00467e-06
 Reference value :  8.00549e-06
 Reference value :  8.00635e-06
 Reference value :  8.00723e-06
 Reference value :  8.00802e-06
 Reference value :  8.00889e-06
 Reference value :  8.00984e-06
 Reference value :  8.01099e-06
 Reference value :  8.01277e-06
 Reference value :  8.01452e-06
 Reference value :  8.01614e-06
 Reference value :  8.01780e-06
 Reference value :  8.01953e-06
 Reference value :  8.02131e-06
 Reference value :  8.02343e-06
 Reference value :  8.02578e-06
 Reference value :  8.02902e-06
 Reference value :  8.03261e-06
 Reference value :  8.03756e-06
 Reference value :  8.04510e-06
 Reference value :  8.04937e-06
 Reference value :  8.05429e-06
 Reference value :  8.06024e-06
 Reference value :  8.06675e-06
 Reference value :  8.07345e-06
 Reference value :  8.08686e-06
 Reference value :  8.10295e-06
 Reference value :  8.12892e-06
 Reference value :  8.17192e-06
 Reference value :  8.23237e-06
 Reference value :  8.25010e-06
 Reference value :  8.25011e-06
 Reference value :  8.25013e-06
 Reference value :  8.25017e-06
 Reference value :  8.25020e-06
 Reference value :  8.25020e-06
 Reference value :  8.25020e-06
 Reference value :  8.25021e-06
 Reference value :  8.25021e-06
 Reference value :  8.25022e-06
 Reference value :  8.25025e-06
 Reference value :  8.25029e-06
 Reference value :  8.25039e-06
 Reference value :  8.25058e-06
 Reference value :  8.25096e-06
 Reference value :  8.25147e-06
 Reference value :  8.25214e-06
 Reference value :  8.25278e-06
 Reference value :  8.25353e-06
 Reference value :  8.25455e-06
 Reference value :  8.25555e-06
 Reference value :  8.25694e-06
 Reference value :  8.25850e-06
 Reference value :  8.26000e-06
 Reference value :  8.26247e-06
 Reference value :  8.26514e-06
 Reference value :  8.26943e-06
 Reference value :  8.27593e-06
 Reference value :  8.28893e-06
 Reference value :  8.31494e-06
 Reference value :  8.36695e-06
 Reference value :  8.47098e-06
 Reference value :  8.50000e-06
 Reference value :  8.50000e-06
 Reference value :  8.50000e-06
 Reference value :  8.50000e-06
 Reference value :  8.50000e-06
 Reference value :  8.50000e-06
 Reference value :  8.50000e-06
 Reference value :  8.50000e-06
 Reference value :  8.50000e-06
 Reference value :  8.50001e-06
 Reference value :  8.50001e-06
 Reference value :  8.50002e-06
 Reference value :  8.50004e-06
 Reference value :  8.50008e-06
 Reference value :  8.50010e-06
 Reference value :  8.50010e-06
 Reference value :  8.50011e-06
 Reference value :  8.50012e-06
 Reference value :  8.50014e-06
 Reference value :  8.50018e-06
 Reference value :  8.50026e-06
 Reference value :  8.50043e-06
 Reference value :  8.50077e-06
 Reference value :  8.50128e-06
 Reference value :  8.50204e-06
 Reference value :  8.50282e-06
 Reference value :  8.50353e-06
 Reference value :  8.50429e-06
 Reference value :  8.50506e-06
 Reference value :  8.50587e-06
 Reference value :  8.50695e-06
 Reference value :  8.50809e-06
 Reference value :  8.51036e-06
 Reference value :  8.51180e-06
 Reference value :  8.51328e-06
 Reference value :  8.51497e-06
 Reference value :  8.51684e-06
 Reference value :  8.51968e-06
 Reference value :  8.52317e-06
 Reference value :  8.52790e-06
 Reference value :  8.53340e-06
 Reference value :  8.53726e-06
 Reference value :  8.54097e-06
 Reference value :  8.54398e-06
 Reference value :  8.54664e-06
 Reference value :  8.54864e-06
 Reference value :  8.55084e-06
 Reference value :  8.55364e-06
 Reference value :  8.55639e-06
 Reference value :  8.56062e-06
 Reference value :  8.56582e-06
 Reference value :  8.57349e-06
 Reference value :  8.58452e-06
 Reference value :  8.60103e-06
 Reference value :  8.61577e-06
 Reference value :  8.63168e-06
 Reference value :  8.65183e-06
 Reference value :  8.68157e-06
 Reference value :  8.72316e-06
 Reference value :  8.75010e-06
 Reference value :  8.75011e-06
 Reference value :  8.75013e-06
 Reference value :  8.75017e-06
 Reference value :  8.75020e-06
 Reference value :  8.75020e-06
 Reference value :  8.75020e-06
 Reference value :  8.75021e-06
 Reference value :  8.75021e-06
 Reference value :  8.75022e-06
 Reference value :  8.75025e-06
 Reference value :  8.75030e-06
 Reference value :  8.75039e-06
 Reference value :  8.75059e-06
 Reference value :  8.75097e-06
 Reference value :  8.75148e-06
 Reference value :  8.75216e-06
 Reference value :  8.75280e-06
 Reference value :  8.75353e-06
 Reference value :  8.75446e-06
 Reference value :  8.75521e-06
 Reference value :  8.75607e-06
 Reference value :  8.75688e-06
 Reference value :  8.75776e-06
 Reference value :  8.75914e-06
 Reference value :  8.76057e-06
 Reference value :  8.76297e-06
 Reference value :  8.76574e-06
 Reference value :  8.77019e-06
 Reference value :  8.77763e-06
 Reference value :  8.79251e-06
 Reference value :  8.81957e-06
 Reference value :  8.87369e-06
 Reference value :  8.98193e-06
 Reference value :  9.00000e-06
 Reference value :  9.00001e-06
 Reference value :  9.00003e-06
 Reference value :  9.00007e-06
 Reference value :  9.00010e-06
 Reference value :  9.00010e-06
 Reference value :  9.00011e-06
 Reference value :  9.00013e-06
 Reference value :  9.00016e-06
 Reference value :  9.00023e-06
 Reference value :  9.00037e-06
 Reference value :  9.00055e-06
 Reference value :  9.00093e-06
 Reference value :  9.00144e-06
 Reference value :  9.00198e-06
 Reference value :  9.00257e-06
 Reference value :  9.00330e-06
 Reference value :  9.00398e-06
 Reference value :  9.00491e-06
 Reference value :  9.00574e-06
 Reference value :  9.00672e-06
 Reference value :  9.00803e-06
 Reference value :  9.00940e-06
 Reference value :  9.01136e-06
 Reference value :  9.01385e-06
 Reference value :  9.01571e-06
 Reference value :  9.01775e-06
 Reference value :  9.02014e-06
 Reference value :  9.02255e-06
 Reference value :  9.02521e-06
 Reference value :  9.03011e-06
 Reference value :  9.03655e-06
 Reference value :  9.04615e-06
 Reference value :  9.06536e-06
 Reference value :  9.09297e-06
 Reference value :  9.14820e-06
 Reference value :  9.24947e-06
 Reference value :  9.25010e-06
 Reference value :  9.25011e-06
 Reference value :  9.25013e-06
 Reference value :  9.25017e-06
 Reference value :  9.25020e-06
 Reference value :  9.25020e-06
 Reference value :  9.25020e-06
 Reference value :  9.25021e-06
 Reference value :  9.25021e-06
 Reference value :  9.25022e-06
 Reference value :  9.25025e-06
 Reference value :  9.25030e-06
 Reference value :  9.25039e-06
 Reference value :  9.25059e-06
 Reference value :  9.25097e-06
 Reference value :  9.25149e-06
 Reference value :  9.25216e-06
 Reference value :  9.25280e-06
 Reference value :  9.25356e-06
 Reference value :  9.25461e-06
 Reference value :  9.25534e-06
 Reference value :  9.25618e-06
 Reference value :  9.25694e-06
 Reference value :  9.25777e-06
 Reference value :  9.25886e-06
 Reference value :  9.26006e-06
 Reference value :  9.26246e-06
 Reference value :  9.26496e-06
 Reference value :  9.26923e-06
 Reference value :  9.27492e-06
 Reference value :  9.28629e-06
 Reference value :  9.30903e-06
 Reference value :  9.35453e-06
 Reference value :  9.44551e-06
 Reference value :  9.50000e-06
 Reference value :  9.50001e-06
 Reference value :  9.50003e-06
 Reference value :  9.50007e-06
 Reference value :  9.50010e-06
 Reference value :  9.50010e-06
 Reference value :  9.50011e-06
 Reference value :  9.50013e-06
 Reference value :  9.50016e-06
 Reference value :  9.50023e-06
 Reference value :  9.50037e-06
 Reference value :  9.50055e-06
 Reference value :  9.50093e-06
 Reference value :  9.50144e-06
 Reference value :  9.50198e-06
 Reference value :  9.50256e-06
 Reference value :  9.50321e-06
 Reference value :  9.50388e-06
 Reference value :  9.50467e-06
 Reference value :  9.50549e-06
 Reference value :  9.50635e-06
 Reference value :  9.50731e-06
 Reference value :  9.50811e-06
 Reference value :  9.50905e-06
 Reference value :  9.50999e-06
 Reference value :  9.51120e-06
 Reference value :  9.51295e-06
 Reference value :  9.51555e-06
 Reference value :  9.51800e-06
 Reference value :  9.52018e-06
 Reference value :  9.52200e-06
 Reference value :  9.52397e-06
 Reference value :  9.52579e-06
 Reference value :  9.52761e-06
 Reference value :  9.52994e-06
 Reference value :  9.53215e-06
 Reference value :  9.53518e-06
 Reference value :  9.53936e-06
 Reference value :  9.54423e-06
 Reference value :  9.54923e-06
 Reference value :  9.55321e-06
 Reference value :  9.55730e-06
 Reference value :  9.56022e-06
 Reference value :  9.56400e-06
 Reference value :  9.56679e-06
 Reference value :  9.56991e-06
 Reference value :  9.57291e-06
 Reference value :  9.57641e-06
 Reference value :  9.58221e-06
 Reference value :  9.58961e-06
 Reference value :  9.59680e-06
 Reference value :  9.60523e-06
 Reference value :  9.61286e-06
 Reference value :  9.62814e-06
 Reference value :  9.65407e-06
 Reference value :  9.69791e-06
 Reference value :  9.75010e-06
 Reference value :  9.75011e-06
 Reference value :  9.75013e-06
 Reference value :  9.75017e-06
 Reference value :  9.75020e-06
 Reference value :  9.75020e-06
 Reference value :  9.75020e-06
 Reference value :  9.75021e-06
 Reference value :  9.75021e-06
 Reference value :  9.75022e-06
 Reference value :  9.75025e-06
 Reference value :  9.75029e-06
 Reference value :  9.75039e-06
 Reference value :  9.75058e-06
 Reference value :  9.75091e-06
 Reference value :  9.75146e-06
 Reference value :  9.75209e-06
 Reference value :  9.75276e-06
 Reference value :  9.75349e-06
 Reference value :  9.75452e-06
 Reference value :  9.75523e-06
 Reference value :  9.75605e-06
 Reference value :  9.75697e-06
 Reference value :  9.75791e-06
 Reference value :  9.75914e-06
 Reference value :  9.76118e-06
 Reference value :  9.76328e-06
 Reference value :  9.76658e-06
 Reference value :  9.77075e-06
 Reference value :  9.77910e-06
 Reference value :  9.79578e-06
 Reference value :  9.82403e-06
 Reference value :  9.88053e-06
 Reference value :  9.99354e-06
 Reference value :  1.00000e-05
 Reference value :  1.00000e-05
 Reference value :  1.00000e-05
 Reference value :  1.00001e-05
 Reference value :  1.00001e-05
 Reference value :  1.00001e-05
 Reference value :  1.00001e-05
 Reference value :  1.00001e-05
 Reference value :  1.00002e-05
 Reference value :  1.00002e-05
 Reference value :  1.00004e-05
 Reference value :  1.00005e-05
 Reference value :  1.00009e-05
 Reference value :  1.00014e-05
 Reference value :  1.00020e-05
 Reference value :  1.00025e-05
 Reference value :  1.00032e-05
 Reference value :  1.00039e-05
 Reference value :  1.00046e-05
 Reference value :  1.00054e-05
 Reference value :  1.00063e-05
 Reference value :  1.00076e-05
 Reference value :  1.00088e-05
 Reference value :  1.00101e-05
 Reference value :  1.00116e-05
 Reference value :  1.00131e-05
 Reference value :  1.00146e-05
 Reference value :  1.00162e-05
 Reference value :  1.00178e-05
 Reference value :  1.00196e-05
 Reference value :  1.00233e-05
 Reference value :  1.00305e-05
 Reference value :  1.00428e-05
 Reference value :  1.00675e-05
 Reference value :  1.01169e-05
 Reference value :  1.02157e-05
 Reference value :  1.02501e-05
 Reference value :  1.02501e-05
 Reference value :  1.02501e-05
 Reference value :  1.02502e-05
 Reference value :  1.02502e-05
 Reference value :  1.02502e-05
 Reference value :  1.02502e-05
 Reference value :  1.02502e-05
 Reference value :  1.02502e-05
 Reference value :  1.02502e-05
 Reference value :  1.02502e-05
 Reference value :  1.02503e-05
 Reference value :  1.02504e-05
 Reference value :  1.02506e-05
 Reference value :  1.02509e-05
 Reference value :  1.02515e-05
 Reference value :  1.02521e-05
 Reference value :  1.02528e-05
 Reference value :  1.02535e-05
 Reference value :  1.02545e-05
 Reference value :  1.02552e-05
 Reference value :  1.02561e-05
 Reference value :  1.02568e-05
 Reference value :  1.02577e-05
 Reference value :  1.02587e-05
 Reference value :  1.02598e-05
 Reference value :  1.02610e-05
 Reference value :  1.02626e-05
 Reference value :  1.02645e-05
 Reference value :  1.02670e-05
 Reference value :  1.02703e-05
 Reference value :  1.02749e-05
 Reference value :  1.02842e-05
 Reference value :  1.03008e-05
 Reference value :  1.03341e-05
 Reference value :  1.04006e-05
 Reference value :  1.05000e-05
 Reference value :  1.05000e-05
 Reference value :  1.05000e-05
 Reference value :  1.05001e-05
 Reference value :  1.05001e-05
 Reference value :  1.05001e-05
 Reference value :  1.05001e-05
 Reference value :  1.05001e-05
 Reference value :  1.05002e-05
 Reference value :  1.05002e-05
 Reference value :  1.05004e-05
 Reference value :  1.05005e-05
 Reference value :  1.05009e-05
 Reference value :  1.05014e-05
 Reference value :  1.05020e-05
 Reference value :  1.05025e-05
 Reference value :  1.05032e-05
 Reference value :  1.05039e-05
 Reference value :  1.05046e-05
 Reference value :  1.05054e-05
 Reference value :  1.05062e-05
 Reference value :  1.05070e-05
 Reference value :  1.05079e-05
 Reference value :  1.05087e-05
 Reference value :  1.05097e-05
 Reference value :  1.05110e-05
 Reference value :  1.05123e-05
 Reference value :  1.05143e-05
 Reference value :  1.05162e-05
 Reference value :  1.05181e-05
 Reference value :  1.05201e-05
 Reference value :  1.05218e-05
 Reference value :  1.05235e-05
 Reference value :  1.05253e-05
 Reference value :  1.05270e-05
 Reference value :  1.05292e-05
 Reference value :  1.05312e-05
 Reference value :  1.05344e-05
 Reference value :  1.05385e-05
 Reference value :  1.05465e-05
 Reference value :  1.05610e-05
 Reference value :  1.05862e-05
 Reference value :  1.06324e-05
 Reference value :  1.06801e-05
 Reference value :  1.07501e-05
 Reference value :  1.07501e-05
 Reference value :  1.07501e-05
 Reference value :  1.07502e-05
 Reference value :  1.07502e-05
 Reference value :  1.07502e-05
 Reference value :  1.07502e-05
 Reference value :  1.07502e-05
 Reference value :  1.07502e-05
 Reference value :  1.07502e-05
 Reference value :  1.07502e-05
 Reference value :  1.07503e-05
 Reference value :  1.07504e-05
 Reference value :  1.07506e-05
 Reference value :  1.07509e-05
 Reference value :  1.07515e-05
 Reference value :  1.07521e-05
 Reference value :  1.07527e-05
 Reference value :  1.07535e-05
 Reference value :  1.07545e-05
 Reference value :  1.07552e-05
 Reference value :  1.07561e-05
 Reference value :  1.07570e-05
 Reference value :  1.07579e-05
 Reference value :  1.07591e-05
 Reference value :  1.07610e-05
 Reference value :  1.07631e-05
 Reference value :  1.07663e-05
 Reference value :  1.07705e-05
 Reference value :  1.07790e-05
 Reference value :  1.07956e-05
 Reference value :  1.08242e-05
 Reference value :  1.08813e-05
 Reference value :  1.09411e-05
 Reference value :  1.10000e-05
 Reference value :  1.10000e-05
 Reference value :  1.10000e-05
 Reference value :  1.10001e-05
 Reference value :  1.10001e-05
 Reference value :  1.10001e-05
 Reference value :  1.10001e-05
 Reference value :  1.10001e-05
 Reference value :  1.10002e-05
 Reference value :  1.10002e-05
 Reference value :  1.10004e-05
 Reference value :  1.10005e-05
 Reference value :  1.10009e-05
 Reference value :  1.10014e-05
 Reference value :  1.10020e-05
 Reference value :  1.10025e-05
 Reference value :  1.10032e-05
 Reference value :  1.10038e-05
 Reference value :  1.10046e-05
 Reference value :  1.10054e-05
 Reference value :  1.10063e-05
 Reference value :  1.10076e-05
 Reference value :  1.10088e-05
 Reference value :  1.10101e-05
 Reference value :  1.10116e-05
 Reference value :  1.10131e-05
 Reference value :  1.10145e-05
 Reference value :  1.10161e-05
 Reference value :  1.10177e-05
 Reference value :  1.10195e-05
 Reference value :  1.10230e-05
 Reference value :  1.10301e-05
 Reference value :  1.10426e-05
 Reference value :  1.10677e-05
 Reference value :  1.11178e-05
 Reference value :  1.12179e-05
 Reference value :  1.12501e-05
 Reference value :  1.12501e-05
 Reference value :  1.12501e-05
 Reference value :  1.12502e-05
 Reference value :  1.12502e-05
 Reference value :  1.12502e-05
 Reference value :  1.12502e-05
 Reference value :  1.12502e-05
 Reference value :  1.12502e-05
 Reference value :  1.12502e-05
 Reference value :  1.12502e-05
 Reference value :  1.12503e-05
 Reference value :  1.12504e-05
 Reference value :  1.12506e-05
 Reference value :  1.12509e-05
 Reference value :  1.12515e-05
 Reference value :  1.12521e-05
 Reference value :  1.12527e-05
 Reference value :  1.12535e-05
 Reference value :  1.12545e-05
 Reference value :  1.12552e-05
 Reference value :  1.12561e-05
 Reference value :  1.12568e-05
 Reference value :  1.12577e-05
 Reference value :  1.12587e-05
 Reference value :  1.12598e-05
 Reference value :  1.12609e-05
 Reference value :  1.12626e-05
 Reference value :  1.12645e-05
 Reference value :  1.12670e-05
 Reference value :  1.12702e-05
 Reference value :  1.12748e-05
 Reference value :  1.12841e-05
 Reference value :  1.12993e-05
 Reference value :  1.13297e-05
 Reference value :  1.13905e-05
 Reference value :  1.15000e-05
 Reference value :  1.15000e-05
 Reference value :  1.15000e-05
 Reference value :  1.15001e-05
 Reference value :  1.15001e-05
 Reference value :  1.15001e-05
 Reference value :  1.15001e-05
 Reference value :  1.15001e-05
 Reference value :  1.15002e-05
 Reference value :  1.15002e-05
 Reference value :  1.15004e-05
 Reference value :  1.15005e-05
 Reference value :  1.15009e-05
 Reference value :  1.15014e-05
 Reference value :  1.15020e-05
 Reference value :  1.15025e-05
 Reference value :  1.15032e-05
 Reference value :  1.15039e-05
 Reference value :  1.15046e-05
 Reference value :  1.15054e-05
 Reference value :  1.15063e-05
 Reference value :  1.15071e-05
 Reference value :  1.15080e-05
 Reference value :  1.15089e-05
 Reference value :  1.15098e-05
 Reference value :  1.15111e-05
 Reference value :  1.15126e-05
 Reference value :  1.15147e-05
 Reference value :  1.15163e-05
 Reference value :  1.15180e-05
 Reference value :  1.15198e-05
 Reference value :  1.15212e-05
 Reference value :  1.15226e-05
 Reference value :  1.15243e-05
 Reference value :  1.15259e-05
 Reference value :  1.15273e-05
 Reference value :  1.15293e-05
 Reference value :  1.15317e-05
 Reference value :  1.15343e-05
 Reference value :  1.15389e-05
 Reference value :  1.15451e-05
 Reference value :  1.15553e-05
 Reference value :  1.15722e-05
 Reference value :  1.15991e-05
 Reference value :  1.16408e-05
 Reference value :  1.16687e-05
 Reference value :  1.17020e-05
 Reference value :  1.17244e-05
 Reference value :  1.17410e-05
 Reference value :  1.17501e-05
 Reference value :  1.17501e-05
 Reference value :  1.17501e-05
 Reference value :  1.17502e-05
 Reference value :  1.17502e-05
 Reference value :  1.17502e-05
 Reference value :  1.17502e-05
 Reference value :  1.17502e-05
 Reference value :  1.17502e-05
 Reference value :  1.17502e-05
 Reference value :  1.17502e-05
 Reference value :  1.17503e-05
 Reference value :  1.17504e-05
 Reference value :  1.17506e-05
 Reference value :  1.17509e-05
 Reference value :  1.17515e-05
 Reference value :  1.17521e-05
 Reference value :  1.17528e-05
 Reference value :  1.17535e-05
 Reference value :  1.17545e-05
 Reference value :  1.17552e-05
 Reference value :  1.17561e-05
 Reference value :  1.17570e-05
 Reference value :  1.17579e-05
 Reference value :  1.17591e-05
 Reference value :  1.17610e-05
 Reference value :  1.17632e-05
 Reference value :  1.17663e-05
 Reference value :  1.17705e-05
 Reference value :  1.17790e-05
 Reference value :  1.17959e-05
 Reference value :  1.18245e-05
 Reference value :  1.18819e-05
 Reference value :  1.19967e-05
 Reference value :  1.20000e-05
 Reference value :  1.20000e-05
 Reference value :  1.20000e-05
 Reference value :  1.20001e-05
 Reference value :  1.20001e-05
 Reference value :  1.20001e-05
 Reference value :  1.20001e-05
 Reference value :  1.20001e-05
 Reference value :  1.20002e-05
 Reference value :  1.20002e-05
 Reference value :  1.20004e-05
 Reference value :  1.20005e-05
 Reference value :  1.20009e-05
 Reference value :  1.20014e-05
 Reference value :  1.20020e-05
 Reference value :  1.20025e-05
 Reference value :  1.20032e-05
 Reference value :  1.20038e-05
 Reference value :  1.20046e-05
 Reference value :  1.20054e-05
 Reference value :  1.20063e-05
 Reference value :  1.20075e-05
 Reference value :  1.20087e-05
 Reference value :  1.20101e-05
 Reference value :  1.20116e-05
 Reference value :  1.20130e-05
 Reference value :  1.20144e-05
 Reference value :  1.20158e-05
 Reference value :  1.20173e-05
 Reference value :  1.20191e-05
 Reference value :  1.20225e-05
 Reference value :  1.20281e-05
 Reference value :  1.20394e-05
 Reference value :  1.20619e-05
 Reference value :  1.21070e-05
 Reference value :  1.21972e-05
 Reference value :  1.22501e-05
 Reference value :  1.22501e-05
 Reference value :  1.22501e-05
 Reference value :  1.22502e-05
 Reference value :  1.22502e-05
 Reference value :  1.22502e-05
 Reference value :  1.22502e-05
 Reference value :  1.22502e-05
 Reference value :  1.22502e-05
 Reference value :  1.22502e-05
 Reference value :  1.22502e-05
 Reference value :  1.22503e-05
 Reference value :  1.22504e-05
 Reference value :  1.22506e-05
 Reference value :  1.22509e-05
 Reference value :  1.22515e-05
 Reference value :  1.22521e-05
 Reference value :  1.22527e-05
 Reference value :  1.22535e-05
 Reference value :  1.22545e-05
 Reference value :  1.22552e-05
 Reference value :  1.22561e-05
 Reference value :  1.22568e-05
 Reference value :  1.22577e-05
 Reference value :  1.22587e-05
 Reference value :  1.22598e-05
 Reference value :  1.22609e-05
 Reference value :  1.22626e-05
 Reference value :  1.22645e-05
 Reference value :  1.22670e-05
 Reference value :  1.22702e-05
 Reference value :  1.22749e-05
 Reference value :  1.22841e-05
 Reference value :  1.23002e-05
 Reference value :  1.23323e-05
 Reference value :  1.23966e-05
 Reference value :  1.25000e-05
 Reference value :  1.25000e-05
 Reference value :  1.25000e-05
 Reference value :  1.25001e-05
 Reference value :  1.25001e-05
 Reference value :  1.25001e-05
 Reference value :  1.25001e-05
 Reference value :  1.25001e-05
 Reference value :  1.25002e-05
 Reference value :  1.25002e-05
 Reference value :  1.25004e-05
 Reference value :  1.25005e-05
 Reference value :  1.25009e-05
 Reference value :  1.25014e-05
 Reference value :  1.25020e-05
 Reference value :  1.25025e-05
 Reference value :  1.25032e-05
 Reference value :  1.25039e-05
 Reference value :  1.25046e-05
 Reference value :  1.25054e-05
 Reference value :  1.25062e-05
 Reference value :  1.25070e-05
 Reference value :  1.25079e-05
 Reference value :  1.25088e-05
 Reference value :  1.25097e-05
 Reference value :  1.25110e-05
 Reference value :  1.25125e-05
 Reference value :  1.25139e-05
 Reference value :  1.25155e-05
 Reference value :  1.25172e-05
 Reference value :  1.25189e-05
 Reference value :  1.25206e-05
 Reference value :  1.25218e-05
 Reference value :  1.25232e-05
 Reference value :  1.25245e-05
 Reference value :  1.25260e-05
 Reference value :  1.25276e-05
 Reference value :  1.25293e-05
 Reference value :  1.25322e-05
 Reference value :  1.25349e-05
 Reference value :  1.25402e-05
 Reference value :  1.25501e-05
 Reference value :  1.25596e-05
 Reference value :  1.25687e-05
 Reference value :  1.25746e-05
 Reference value :  1.25804e-05
 Reference value :  1.25846e-05
 Reference value :  1.25889e-05
 Reference value :  1.25958e-05
 Reference value :  1.26033e-05
 Reference value :  1.26157e-05
 Reference value :  1.26317e-05
 Reference value :  1.26557e-05
 Reference value :  1.26865e-05
 Reference value :  1.27282e-05
 Reference value :  1.27501e-05
 Reference value :  1.27501e-05
 Reference value :  1.27501e-05
 Reference value :  1.27502e-05
 Reference value :  1.27502e-05
 Reference value :  1.27502e-05
 Reference value :  1.27502e-05
 Reference value :  1.27502e-05
 Reference value :  1.27502e-05
 Reference value :  1.27502e-05
 Reference value :  1.27502e-05
 Reference value :  1.27503e-05
 Reference value :  1.27504e-05
 Reference value :  1.27506e-05
 Reference value :  1.27509e-05
 Reference value :  1.27515e-05
 Reference value :  1.27521e-05
 Reference value :  1.27528e-05
 Reference value :  1.27535e-05
 Reference value :  1.27545e-05
 Reference value :  1.27553e-05
 Reference value :  1.27561e-05
 Reference value :  1.27570e-05
 Reference value :  1.27579e-05
 Reference value :  1.27592e-05
 Reference value :  1.27610e-05
 Reference value :  1.27632e-05
 Reference value :  1.27663e-05
 Reference value :  1.27706e-05
 Reference value :  1.27793e-05
 Reference value :  1.27960e-05
 Reference value :  1.28249e-05
 Reference value :  1.28827e-05
 Reference value :  1.29983e-05
 Reference value :  1.30000e-05
 Reference value :  1.30000e-05
 Reference value :  1.30000e-05
 Reference value :  1.30001e-05
 Reference value :  1.30001e-05
 Reference value :  1.30001e-05
 Reference value :  1.30001e-05
 Reference value :  1.30001e-05
 Reference value :  1.30002e-05
 Reference value :  1.30002e-05
 Reference value :  1.30004e-05
 Reference value :  1.30005e-05
 Reference value :  1.30009e-05
 Reference value :  1.30014e-05
 Reference value :  1.30020e-05
 Reference value :  1.30025e-05
 Reference value :  1.30032e-05
 Reference value :  1.30039e-05
 Reference value :  1.30046e-05
 Reference value :  1.30055e-05
 Reference value :  1.30063e-05
 Reference value :  1.30075e-05
 Reference value :  1.30087e-05
 Reference value :  1.30099e-05
 Reference value :  1.30113e-05
 Reference value :  1.30128e-05
 Reference value :  1.30143e-05
 Reference value :  1.30158e-05
 Reference value :  1.30174e-05
 Reference value :  1.30192e-05
 Reference value :  1.30224e-05
 Reference value :  1.30272e-05
 Reference value :  1.30368e-05
 Reference value :  1.30555e-05
 Reference value :  1.30921e-05
 Reference value :  1.31652e-05
 Reference value :  1.32501e-05
 Reference value :  1.32501e-05
 Reference value :  1.32501e-05
 Reference value :  1.32502e-05
 Reference value :  1.32502e-05
 Reference value :  1.32502e-05
 Reference value :  1.32502e-05
 Reference value :  1.32502e-05
 Reference value :  1.32502e-05
 Reference value :  1.32502e-05
 Reference value :  1.32502e-05
 Reference value :  1.32503e-05
 Reference value :  1.32504e-05
 Reference value :  1.32506e-05
 Reference value :  1.32509e-05
 Reference value :  1.32515e-05
 Reference value :  1.32521e-05
 Reference value :  1.32527e-05
 Reference value :  1.32535e-05
 Reference value :  1.32545e-05
 Reference value :  1.32552e-05
 Reference value :  1.32561e-05
 Reference value :  1.32568e-05
 Reference value :  1.32576e-05
 Reference value :  1.32586e-05
 Reference value :  1.32598e-05
 Reference value :  1.32620e-05
 Reference value :  1.32644e-05
 Reference value :  1.32683e-05
 Reference value :  1.32732e-05
 Reference value :  1.32830e-05
 Reference value :  1.33027e-05
 Reference value :  1.33403e-05
 Reference value :  1.34156e-05
 Reference value :  1.35000e-05
 Reference value :  1.35000e-05
 Reference value :  1.35000e-05
 Reference value :  1.35001e-05
 Reference value :  1.35001e-05
 Reference value :  1.35001e-05
 Reference value :  1.35001e-05
 Reference value :  1.35001e-05
 Reference value :  1.35002e-05
 Reference value :  1.35002e-05
 Reference value :  1.35004e-05
 Reference value :  1.35005e-05
 Reference value :  1.35009e-05
 Reference value :  1.35014e-05
 Reference value :  1.35020e-05
 Reference value :  1.35025e-05
 Reference value :  1.35032e-05
 Reference value :  1.35039e-05
 Reference value :  1.35047e-05
 Reference value :  1.35055e-05
 Reference value :  1.35064e-05
 Reference value :  1.35073e-05
 Reference value :  1.35081e-05
 Reference value :  1.35090e-05
 Reference value :  1.35100e-05
 Reference value :  1.35111e-05
 Reference value :  1.35130e-05
 Reference value :  1.35155e-05
 Reference value :  1.35180e-05
 Reference value :  1.35202e-05
 Reference value :  1.35219e-05
 Reference value :  1.35235e-05
 Reference value :  1.35251e-05
 Reference value :  1.35268e-05
 Reference value :  1.35287e-05
 Reference value :  1.35307e-05
 Reference value :  1.35334e-05
 Reference value :  1.35371e-05
 Reference value :  1.35426e-05
 Reference value :  1.35482e-05
 Reference value :  1.35547e-05
 Reference value :  1.35621e-05
 Reference value :  1.35671e-05
 Reference value :  1.35725e-05
 Reference value :  1.35785e-05
 Reference value :  1.35862e-05
 Reference value :  1.35934e-05
 Reference value :  1.36015e-05
 Reference value :  1.36099e-05
 Reference value :  1.36251e-05
 Reference value :  1.36438e-05
 Reference value :  1.36725e-05
 Reference value :  1.37191e-05
 Reference value :  1.37501e-05
 Reference value :  1.37501e-05
 Reference value :  1.37501e-05
 Reference value :  1.37502e-05
 Reference value :  1.37502e-05
 Reference value :  1.37502e-05
 Reference value :  1.37502e-05
 Reference value :  1.37502e-05
 Reference value :  1.37502e-05
 Reference value :  1.37502e-05
 Reference value :  1.37502e-05
 Reference value :  1.37503e-05
 Reference value :  1.37504e-05
 Reference value :  1.37506e-05
 Reference value :  1.37509e-05
 Reference value :  1.37515e-05
 Reference value :  1.37521e-05
 Reference value :  1.37528e-05
 Reference value :  1.37535e-05
 Reference value :  1.37545e-05
 Reference value :  1.37552e-05
 Reference value :  1.37560e-05
 Reference value :  1.37569e-05
 Reference value :  1.37579e-05
 Reference value :  1.37591e-05
 Reference value :  1.37610e-05
 Reference value :  1.37632e-05
 Reference value :  1.37663e-05
 Reference value :  1.37705e-05
 Reference value :  1.37790e-05
 Reference value :  1.37958e-05
 Reference value :  1.38243e-05
 Reference value :  1.38814e-05
 Reference value :  1.39956e-05
 Reference value :  1.40000e-05
 Reference value :  1.40000e-05
 Reference value :  1.40000e-05
 Reference value :  1.40001e-05
 Reference value :  1.40001e-05
 Reference value :  1.40001e-05
 Reference value :  1.40001e-05
 Reference value :  1.40001e-05
 Reference value :  1.40002e-05
 Reference value :  1.40002e-05
 Reference value :  1.40004e-05
 Reference value :  1.40005e-05
 Reference value :  1.40009e-05
 Reference value :  1.40014e-05
 Reference value :  1.40020e-05
 Reference value :  1.40025e-05
 Reference value :  1.40032e-05
 Reference value :  1.40039e-05
 Reference value :  1.40046e-05
 Reference value :  1.40054e-05
 Reference value :  1.40063e-05
 Reference value :  1.40076e-05
 Reference value :  1.40088e-05
 Reference value :  1.40100e-05
 Reference value :  1.40114e-05
 Reference value :  1.40130e-05
 Reference value :  1.40145e-05
 Reference value :  1.40161e-05
 Reference value :  1.40178e-05
 Reference value :  1.40198e-05
 Reference value :  1.40232e-05
 Reference value :  1.40282e-05
 Reference value :  1.40374e-05
 Reference value :  1.40543e-05
 Reference value :  1.40851e-05
 Reference value :  1.41451e-05
 Reference value :  1.42501e-05
 Reference value :  1.42501e-05
 Reference value :  1.42501e-05
 Reference value :  1.42502e-05
 Reference value :  1.42502e-05
 Reference value :  1.42502e-05
 Reference value :  1.42502e-05
 Reference value :  1.42502e-05
 Reference value :  1.42502e-05
 Reference value :  1.42502e-05
 Reference value :  1.42502e-05
 Reference value :  1.42503e-05
 Reference value :  1.42504e-05
 Reference value :  1.42506e-05
 Reference value :  1.42509e-05
 Reference value :  1.42515e-05
 Reference value :  1.42521e-05
 Reference value :  1.42527e-05
 Reference value :  1.42535e-05
 Reference value :  1.42545e-05
 Reference value :  1.42552e-05
 Reference value :  1.42561e-05
 Reference value :  1.42568e-05
 Reference value :  1.42577e-05
 Reference value :  1.42587e-05
 Reference value :  1.42598e-05
 Reference value :  1.42609e-05
 Reference value :  1.42626e-05
 Reference value :  1.42645e-05
 Reference value :  1.42670e-05
 Reference value :  1.42702e-05
 Reference value :  1.42748e-05
 Reference value :  1.42841e-05
 Reference value :  1.43004e-05
 Reference value :  1.43332e-05
 Reference value :  1.43987e-05
 Reference value :  1.45000e-05
 Reference value :  1.45000e-05
 Reference value :  1.45000e-05
 Reference value :  1.45001e-05
 Reference value :  1.45001e-05
 Reference value :  1.45001e-05
 Reference value :  1.45001e-05
 Reference value :  1.45001e-05
 Reference value :  1.45002e-05
 Reference value :  1.45002e-05
 Reference value :  1.45004e-05
 Reference value :  1.45005e-05
 Reference value :  1.45009e-05
 Reference value :  1.45014e-05
 Reference value :  1.45020e-05
 Reference value :  1.45025e-05
 Reference value :  1.45032e-05
 Reference value :  1.45039e-05
 Reference value :  1.45046e-05
 Reference value :  1.45054e-05
 Reference value :  1.45063e-05
 Reference value :  1.45071e-05
 Reference value :  1.45078e-05
 Reference value :  1.45087e-05
 Reference value :  1.45096e-05
 Reference value :  1.45107e-05
 Reference value :  1.45122e-05
 Reference value :  1.45138e-05
 Reference value :  1.45154e-05
 Reference value :  1.45172e-05
 Reference value :  1.45188e-05
 Reference value :  1.45205e-05
 Reference value :  1.45218e-05
 Reference value :  1.45229e-05
 Reference value :  1.45242e-05
 Reference value :  1.45256e-05
 Reference value :  1.45269e-05
 Reference value :  1.45284e-05
 Reference value :  1.45307e-05
 Reference value :  1.45330e-05
 Reference value :  1.45370e-05
 Reference value :  1.45432e-05
 Reference value :  1.45523e-05
 Reference value :  1.45615e-05
 Reference value :  1.45724e-05
 Reference value :  1.45877e-05
 Reference value :  1.46183e-05
 Reference value :  1.46511e-05
 Reference value :  1.47168e-05
 Reference value :  1.47501e-05
 Reference value :  1.47501e-05
 Reference value :  1.47501e-05
 Reference value :  1.47502e-05
 Reference value :  1.47502e-05
 Reference value :  1.47502e-05
 Reference value :  1.47502e-05
 Reference value :  1.47502e-05
 Reference value :  1.47502e-05
 Reference value :  1.47502e-05
 Reference value :  1.47502e-05
 Reference value :  1.47503e-05
 Reference value :  1.47504e-05
 Reference value :  1.47506e-05
 Reference value :  1.47509e-05
 Reference value :  1.47515e-05
 Reference value :  1.47521e-05
 Reference value :  1.47528e-05
 Reference value :  1.47535e-05
 Reference value :  1.47545e-05
 Reference value :  1.47552e-05
 Reference value :  1.47561e-05
 Reference value :  1.47570e-05
 Reference value :  1.47579e-05
 Reference value :  1.47591e-05
 Reference value :  1.47610e-05
 Reference value :  1.47631e-05
 Reference value :  1.47663e-05
 Reference value :  1.47705e-05
 Reference value :  1.47790e-05
 Reference value :  1.47957e-05
 Reference value :  1.48245e-05
 Reference value :  1.48819e-05
 Reference value :  1.49968e-05
 Reference value :  1.50000e-05
 Reference value :  1.50000e-05
 Reference value :  1.50000e-05
 Reference value :  1.50001e-05
 Reference value :  1.50001e-05
 Reference value :  1.50001e-05
 Reference value :  1.50001e-05
 Reference value :  1.50001e-05
 Reference value :  1.50002e-05
 Reference value :  1.50002e-05
 Reference value :  1.50004e-05
 Reference value :  1.50005e-05
 Reference value :  1.50009e-05
 Reference value :  1.50014e-05
 Reference value :  1.50020e-05
 Reference value :  1.50025e-05
 Reference value :  1.50032e-05
 Reference value :  1.50038e-05
 Reference value :  1.50046e-05
 Reference value :  1.50054e-05
 Reference value :  1.50063e-05
 Reference value :  1.50075e-05
 Reference value :  1.50087e-05
 Reference value :  1.50101e-05
 Reference value :  1.50116e-05
 Reference value :  1.50130e-05
 Reference value :  1.50144e-05
 Reference value :  1.50159e-05
 Reference value :  1.50176e-05
 Reference value :  1.50195e-05
 Reference value :  1.50230e-05
 Reference value :  1.50281e-05
 Reference value :  1.50378e-05
 Reference value :  1.50558e-05
 Reference value :  1.50892e-05
 Reference value :  1.51548e-05
 Reference value :  1.52501e-05
 Reference value :  1.52501e-05
 Reference value :  1.52501e-05
 Reference value :  1.52502e-05
 Reference value :  1.52502e-05
 Reference value :  1.52502e-05
 Reference value :  1.52502e-05
 Reference value :  1.52502e-05
 Reference value :  1.52502e-05
 Reference value :  1.52502e-05
 Reference value :  1.52502e-05
 Reference value :  1.52503e-05
 Reference value :  1.52504e-05
 Reference value :  1.52506e-05
 Reference value :  1.52509e-05
 Reference value :  1.52515e-05
 Reference value :  1.52521e-05
 Reference value :  1.52527e-05
 Reference value :  1.52535e-05
 Reference value :  1.52545e-05
 Reference value :  1.52552e-05
 Reference value :  1.52561e-05
 Reference value :  1.52568e-05
 Reference value :  1.52577e-05
 Reference value :  1.52587e-05
 Reference value :  1.52598e-05
 Reference value :  1.52609e-05
 Reference value :  1.52626e-05
 Reference value :  1.52645e-05
 Reference value :  1.52670e-05
 Reference value :  1.52702e-05
 Reference value :  1.52748e-05
 Reference value :  1.52841e-05
 Reference value :  1.53002e-05
 Reference value :  1.53323e-05
 Reference value :  1.53967e-05
 Reference value :  1.55000e-05
 Reference value :  1.55016e-05
 Reference value :  1.55049e-05
 Reference value :  1.55066e-05
 Reference value :  1.55082e-05
 Reference value :  1.55095e-05
 Reference value :  1.55107e-05
 Reference value :  1.55122e-05
 Reference value :  1.55137e-05
 Reference value :  1.55150e-05
 Reference value :  1.55165e-05
 Reference value :  1.55180e-05
 Reference value :  1.55195e-05
 Reference value :  1.55210e-05
 Reference value :  1.55223e-05
 Reference value :  1.55237e-05
 Reference value :  1.55252e-05
 Reference value :  1.55267e-05
 Reference value :  1.55281e-05
 Reference value :  1.55299e-05
 Reference value :  1.55324e-05
 Reference value :  1.55348e-05
 Reference value :  1.55394e-05
 Reference value :  1.55457e-05
 Reference value :  1.55534e-05
 Reference value :  1.55645e-05
 Reference value :  1.55865e-05
 Reference value :  1.56207e-05
 Reference value :  1.56552e-05
 Reference value :  1.56814e-05
 Reference value :  1.57067e-05
 Reference value :  1.57432e-05
 Reference value :  1.57501e-05
 Reference value :  1.57501e-05
 Reference value :  1.57501e-05
 Reference value :  1.57502e-05
 Reference value :  1.57502e-05
 Reference value :  1.57502e-05
 Reference value :  1.57502e-05
[...]
 Reference value :  1.74261e-04
 Reference value :  1.74263e-04
 Reference value :  1.74266e-04
 Reference value :  1.74271e-04
 Reference value :  1.74279e-04
 Reference value :  1.74296e-04
 Reference value :  1.74325e-04
 Reference value :  1.74382e-04
 Reference value :  1.74497e-04
 Reference value :  1.74500e-04
 Reference value :  1.74500e-04
 Reference value :  1.74500e-04
 Reference value :  1.74500e-04
 Reference value :  1.74500e-04
 Reference value :  1.74500e-04
 Reference value :  1.74500e-04
 Reference value :  1.74500e-04
 Reference value :  1.74500e-04
 Reference value :  1.74500e-04
 Reference value :  1.74500e-04
 Reference value :  1.74501e-04
 Reference value :  1.74501e-04
 Reference value :  1.74501e-04
 Reference value :  1.74502e-04
 Reference value :  1.74503e-04
 Reference value :  1.74503e-04
 Reference value :  1.74504e-04
 Reference value :  1.74505e-04
 Reference value :  1.74505e-04
 Reference value :  1.74506e-04
 Reference value :  1.74508e-04
 Reference value :  1.74509e-04
 Reference value :  1.74510e-04
 Reference value :  1.74511e-04
 Reference value :  1.74513e-04
 Reference value :  1.74514e-04
 Reference value :  1.74516e-04
 Reference value :  1.74517e-04
 Reference value :  1.74519e-04
 Reference value :  1.74522e-04
 Reference value :  1.74527e-04
 Reference value :  1.74537e-04
 Reference value :  1.74556e-04
 Reference value :  1.74592e-04
 Reference value :  1.74665e-04
 Reference value :  1.74750e-04
 Reference value :  1.74750e-04
 Reference value :  1.74750e-04
 Reference value :  1.74750e-04
 Reference value :  1.74750e-04
 Reference value :  1.74750e-04
 Reference value :  1.74750e-04
 Reference value :  1.74750e-04
 Reference value :  1.74750e-04
 Reference value :  1.74750e-04
 Reference value :  1.74750e-04
 Reference value :  1.74750e-04
 Reference value :  1.74750e-04
 Reference value :  1.74751e-04
 Reference value :  1.74751e-04
 Reference value :  1.74751e-04
 Reference value :  1.74752e-04
 Reference value :  1.74753e-04
 Reference value :  1.74753e-04
 Reference value :  1.74754e-04
 Reference value :  1.74755e-04
 Reference value :  1.74756e-04
 Reference value :  1.74757e-04
 Reference value :  1.74758e-04
 Reference value :  1.74759e-04
 Reference value :  1.74760e-04
 Reference value :  1.74762e-04
 Reference value :  1.74764e-04
 Reference value :  1.74768e-04
 Reference value :  1.74773e-04
 Reference value :  1.74783e-04
 Reference value :  1.74803e-04
 Reference value :  1.74840e-04
 Reference value :  1.74916e-04
 Reference value :  1.75000e-04
 Reference value :  1.75000e-04
 Reference value :  1.75000e-04
 Reference value :  1.75000e-04
 Reference value :  1.75000e-04
 Reference value :  1.75000e-04
 Reference value :  1.75000e-04
 Reference value :  1.75000e-04
 Reference value :  1.75000e-04
 Reference value :  1.75000e-04
 Reference value :  1.75000e-04
 Reference value :  1.75001e-04
 Reference value :  1.75001e-04
 Reference value :  1.75001e-04
 Reference value :  1.75002e-04
 Reference value :  1.75003e-04
 Reference value :  1.75003e-04
 Reference value :  1.75004e-04
 Reference value :  1.75005e-04
 Reference value :  1.75005e-04
 Reference value :  1.75006e-04
 Reference value :  1.75007e-04
 Reference value :  1.75008e-04
 Reference value :  1.75009e-04
 Reference value :  1.75010e-04
 Reference value :  1.75011e-04
 Reference value :  1.75013e-04
 Reference value :  1.75015e-04
 Reference value :  1.75018e-04
 Reference value :  1.75020e-04
 Reference value :  1.75022e-04
 Reference value :  1.75023e-04
 Reference value :  1.75025e-04
 Reference value :  1.75027e-04
 Reference value :  1.75029e-04
 Reference value :  1.75031e-04
 Reference value :  1.75033e-04
 Reference value :  1.75037e-04
 Reference value :  1.75043e-04
 Reference value :  1.75053e-04
 Reference value :  1.75065e-04
 Reference value :  1.75075e-04
 Reference value :  1.75086e-04
 Reference value :  1.75095e-04
 Reference value :  1.75103e-04
 Reference value :  1.75112e-04
 Reference value :  1.75122e-04
 Reference value :  1.75135e-04
 Reference value :  1.75148e-04
 Reference value :  1.75160e-04
 Reference value :  1.75171e-04
 Reference value :  1.75182e-04
 Reference value :  1.75193e-04
 Reference value :  1.75215e-04
 Reference value :  1.75250e-04
 Reference value :  1.75250e-04
 Reference value :  1.75250e-04
 Reference value :  1.75250e-04
 Reference value :  1.75250e-04
 Reference value :  1.75250e-04
 Reference value :  1.75250e-04
 Reference value :  1.75250e-04
 Reference value :  1.75250e-04
 Reference value :  1.75250e-04
 Reference value :  1.75250e-04
 Reference value :  1.75250e-04
 Reference value :  1.75250e-04
 Reference value :  1.75251e-04
 Reference value :  1.75251e-04
 Reference value :  1.75251e-04
 Reference value :  1.75252e-04
 Reference value :  1.75253e-04
 Reference value :  1.75253e-04
 Reference value :  1.75254e-04
 Reference value :  1.75255e-04
 Reference value :  1.75256e-04
 Reference value :  1.75257e-04
 Reference value :  1.75258e-04
 Reference value :  1.75259e-04
 Reference value :  1.75261e-04
 Reference value :  1.75263e-04
 Reference value :  1.75266e-04
 Reference value :  1.75271e-04
 Reference value :  1.75279e-04
 Reference value :  1.75296e-04
 Reference value :  1.75324e-04
 Reference value :  1.75381e-04
 Reference value :  1.75494e-04
 Reference value :  1.75500e-04
 Reference value :  1.75500e-04
 Reference value :  1.75500e-04
 Reference value :  1.75500e-04
 Reference value :  1.75500e-04
 Reference value :  1.75500e-04
 Reference value :  1.75500e-04
 Reference value :  1.75500e-04
 Reference value :  1.75500e-04
 Reference value :  1.75500e-04
 Reference value :  1.75500e-04
 Reference value :  1.75501e-04
 Reference value :  1.75501e-04
 Reference value :  1.75501e-04
 Reference value :  1.75502e-04
 Reference value :  1.75503e-04
 Reference value :  1.75503e-04
 Reference value :  1.75504e-04
 Reference value :  1.75505e-04
 Reference value :  1.75505e-04
 Reference value :  1.75506e-04
 Reference value :  1.75508e-04
 Reference value :  1.75509e-04
 Reference value :  1.75510e-04
 Reference value :  1.75511e-04
 Reference value :  1.75513e-04
 Reference value :  1.75514e-04
 Reference value :  1.75515e-04
 Reference value :  1.75517e-04
 Reference value :  1.75519e-04
 Reference value :  1.75522e-04
 Reference value :  1.75527e-04
 Reference value :  1.75537e-04
 Reference value :  1.75557e-04
 Reference value :  1.75596e-04
 Reference value :  1.75676e-04
 Reference value :  1.75750e-04
 Reference value :  1.75750e-04
 Reference value :  1.75750e-04
 Reference value :  1.75750e-04
 Reference value :  1.75750e-04
 Reference value :  1.75750e-04
 Reference value :  1.75750e-04
 Reference value :  1.75750e-04
 Reference value :  1.75750e-04
 Reference value :  1.75750e-04
 Reference value :  1.75750e-04
 Reference value :  1.75750e-04
 Reference value :  1.75750e-04
 Reference value :  1.75751e-04
 Reference value :  1.75751e-04
 Reference value :  1.75751e-04
 Reference value :  1.75752e-04
 Reference value :  1.75753e-04
 Reference value :  1.75753e-04
 Reference value :  1.75754e-04
 Reference value :  1.75755e-04
 Reference value :  1.75756e-04
 Reference value :  1.75757e-04
 Reference value :  1.75758e-04
 Reference value :  1.75759e-04
 Reference value :  1.75760e-04
 Reference value :  1.75762e-04
 Reference value :  1.75764e-04
 Reference value :  1.75768e-04
 Reference value :  1.75773e-04
 Reference value :  1.75783e-04
 Reference value :  1.75803e-04
 Reference value :  1.75841e-04
 Reference value :  1.75916e-04
 Reference value :  1.76000e-04
 Reference value :  1.76000e-04
 Reference value :  1.76000e-04
 Reference value :  1.76000e-04
 Reference value :  1.76000e-04
 Reference value :  1.76000e-04
 Reference value :  1.76000e-04
 Reference value :  1.76000e-04
 Reference value :  1.76000e-04
 Reference value :  1.76000e-04
 Reference value :  1.76000e-04
 Reference value :  1.76001e-04
 Reference value :  1.76001e-04
 Reference value :  1.76001e-04
 Reference value :  1.76002e-04
 Reference value :  1.76003e-04
 Reference value :  1.76003e-04
 Reference value :  1.76004e-04
 Reference value :  1.76005e-04
 Reference value :  1.76005e-04
 Reference value :  1.76006e-04
 Reference value :  1.76007e-04
 Reference value :  1.76008e-04
 Reference value :  1.76009e-04
 Reference value :  1.76010e-04
 Reference value :  1.76011e-04
 Reference value :  1.76013e-04
 Reference value :  1.76015e-04
 Reference value :  1.76018e-04
 Reference value :  1.76020e-04
 Reference value :  1.76022e-04
 Reference value :  1.76024e-04
 Reference value :  1.76025e-04
 Reference value :  1.76027e-04
 Reference value :  1.76029e-04
 Reference value :  1.76031e-04
 Reference value :  1.76034e-04
 Reference value :  1.76038e-04
 Reference value :  1.76043e-04
 Reference value :  1.76050e-04
 Reference value :  1.76058e-04
 Reference value :  1.76067e-04
 Reference value :  1.76077e-04
 Reference value :  1.76084e-04
 Reference value :  1.76092e-04
 Reference value :  1.76102e-04
 Reference value :  1.76114e-04
 Reference value :  1.76125e-04
 Reference value :  1.76138e-04
 Reference value :  1.76156e-04
 Reference value :  1.76183e-04
 Reference value :  1.76225e-04
 Reference value :  1.76250e-04
 Reference value :  1.76250e-04
 Reference value :  1.76250e-04
 Reference value :  1.76250e-04
 Reference value :  1.76250e-04
 Reference value :  1.76250e-04
 Reference value :  1.76250e-04
 Reference value :  1.76250e-04
 Reference value :  1.76250e-04
 Reference value :  1.76250e-04
 Reference value :  1.76250e-04
 Reference value :  1.76250e-04
 Reference value :  1.76250e-04
 Reference value :  1.76251e-04
 Reference value :  1.76251e-04
 Reference value :  1.76251e-04
 Reference value :  1.76252e-04
 Reference value :  1.76253e-04
 Reference value :  1.76253e-04
 Reference value :  1.76254e-04
 Reference value :  1.76255e-04
 Reference value :  1.76256e-04
 Reference value :  1.76257e-04
 Reference value :  1.76258e-04
 Reference value :  1.76259e-04
 Reference value :  1.76261e-04
 Reference value :  1.76263e-04
 Reference value :  1.76266e-04
 Reference value :  1.76270e-04
 Reference value :  1.76279e-04
 Reference value :  1.76296e-04
 Reference value :  1.76324e-04
 Reference value :  1.76381e-04
 Reference value :  1.76496e-04
 Reference value :  1.76500e-04
 Reference value :  1.76500e-04
 Reference value :  1.76500e-04
 Reference value :  1.76500e-04
 Reference value :  1.76500e-04
 Reference value :  1.76500e-04
 Reference value :  1.76500e-04
 Reference value :  1.76500e-04
 Reference value :  1.76500e-04
 Reference value :  1.76500e-04
 Reference value :  1.76500e-04
 Reference value :  1.76501e-04
 Reference value :  1.76501e-04
 Reference value :  1.76501e-04
 Reference value :  1.76502e-04
 Reference value :  1.76503e-04
 Reference value :  1.76503e-04
 Reference value :  1.76504e-04
 Reference value :  1.76505e-04
 Reference value :  1.76505e-04
 Reference value :  1.76506e-04
 Reference value :  1.76508e-04
 Reference value :  1.76509e-04
 Reference value :  1.76510e-04
 Reference value :  1.76512e-04
 Reference value :  1.76513e-04
 Reference value :  1.76514e-04
 Reference value :  1.76516e-04
 Reference value :  1.76518e-04
 Reference value :  1.76519e-04
 Reference value :  1.76523e-04
 Reference value :  1.76528e-04
 Reference value :  1.76538e-04
 Reference value :  1.76556e-04
 Reference value :  1.76589e-04
 Reference value :  1.76655e-04
 Reference value :  1.76750e-04
 Reference value :  1.76750e-04
 Reference value :  1.76750e-04
 Reference value :  1.76750e-04
 Reference value :  1.76750e-04
 Reference value :  1.76750e-04
 Reference value :  1.76750e-04
 Reference value :  1.76750e-04
 Reference value :  1.76750e-04
 Reference value :  1.76750e-04
 Reference value :  1.76750e-04
 Reference value :  1.76750e-04
 Reference value :  1.76750e-04
 Reference value :  1.76751e-04
 Reference value :  1.76751e-04
 Reference value :  1.76751e-04
 Reference value :  1.76752e-04
 Reference value :  1.76753e-04
 Reference value :  1.76753e-04
 Reference value :  1.76754e-04
 Reference value :  1.76755e-04
 Reference value :  1.76756e-04
 Reference value :  1.76757e-04
 Reference value :  1.76758e-04
 Reference value :  1.76759e-04
 Reference value :  1.76760e-04
 Reference value :  1.76761e-04
 Reference value :  1.76763e-04
 Reference value :  1.76764e-04
 Reference value :  1.76767e-04
 Reference value :  1.76770e-04
 Reference value :  1.76775e-04
 Reference value :  1.76784e-04
 Reference value :  1.76800e-04
 Reference value :  1.76833e-04
 Reference value :  1.76898e-04
 Reference value :  1.77000e-04
 Reference value :  1.77000e-04
 Reference value :  1.77000e-04
 Reference value :  1.77000e-04
 Reference value :  1.77000e-04
 Reference value :  1.77000e-04
 Reference value :  1.77000e-04
 Reference value :  1.77000e-04
 Reference value :  1.77000e-04
 Reference value :  1.77000e-04
 Reference value :  1.77000e-04
 Reference value :  1.77001e-04
 Reference value :  1.77001e-04
 Reference value :  1.77001e-04
 Reference value :  1.77002e-04
 Reference value :  1.77003e-04
 Reference value :  1.77003e-04
 Reference value :  1.77004e-04
 Reference value :  1.77005e-04
 Reference value :  1.77005e-04
 Reference value :  1.77006e-04
 Reference value :  1.77007e-04
 Reference value :  1.77008e-04
 Reference value :  1.77009e-04
 Reference value :  1.77010e-04
 Reference value :  1.77011e-04
 Reference value :  1.77012e-04
 Reference value :  1.77014e-04
 Reference value :  1.77016e-04
 Reference value :  1.77017e-04
 Reference value :  1.77019e-04
 Reference value :  1.77021e-04
 Reference value :  1.77022e-04
 Reference value :  1.77023e-04
 Reference value :  1.77024e-04
 Reference value :  1.77026e-04
 Reference value :  1.77027e-04
 Reference value :  1.77029e-04
 Reference value :  1.77031e-04
 Reference value :  1.77034e-04
 Reference value :  1.77036e-04
 Reference value :  1.77038e-04
 Reference value :  1.77041e-04
 Reference value :  1.77044e-04
 Reference value :  1.77048e-04
 Reference value :  1.77053e-04
 Reference value :  1.77063e-04
 Reference value :  1.77079e-04
 Reference value :  1.77103e-04
 Reference value :  1.77146e-04
 Reference value :  1.77215e-04
 Reference value :  1.77250e-04
 Reference value :  1.77250e-04
 Reference value :  1.77250e-04
 Reference value :  1.77250e-04
 Reference value :  1.77250e-04
 Reference value :  1.77250e-04
 Reference value :  1.77250e-04
 Reference value :  1.77250e-04
 Reference value :  1.77250e-04
 Reference value :  1.77250e-04
 Reference value :  1.77250e-04
 Reference value :  1.77250e-04
 Reference value :  1.77250e-04
 Reference value :  1.77251e-04
 Reference value :  1.77251e-04
 Reference value :  1.77251e-04
 Reference value :  1.77252e-04
 Reference value :  1.77253e-04
 Reference value :  1.77253e-04
 Reference value :  1.77255e-04
 Reference value :  1.77255e-04
 Reference value :  1.77256e-04
 Reference value :  1.77257e-04
 Reference value :  1.77258e-04
 Reference value :  1.77259e-04
 Reference value :  1.77261e-04
 Reference value :  1.77263e-04
 Reference value :  1.77266e-04
 Reference value :  1.77271e-04
 Reference value :  1.77279e-04
 Reference value :  1.77296e-04
 Reference value :  1.77325e-04
 Reference value :  1.77382e-04
 Reference value :  1.77493e-04
 Reference value :  1.77500e-04
 Reference value :  1.77500e-04
 Reference value :  1.77500e-04
 Reference value :  1.77500e-04
 Reference value :  1.77500e-04
 Reference value :  1.77500e-04
 Reference value :  1.77500e-04
 Reference value :  1.77500e-04
 Reference value :  1.77500e-04
 Reference value :  1.77500e-04
 Reference value :  1.77500e-04
 Reference value :  1.77501e-04
 Reference value :  1.77501e-04
 Reference value :  1.77501e-04
 Reference value :  1.77502e-04
 Reference value :  1.77503e-04
 Reference value :  1.77503e-04
 Reference value :  1.77504e-04
 Reference value :  1.77505e-04
 Reference value :  1.77505e-04
 Reference value :  1.77506e-04
 Reference value :  1.77508e-04
 Reference value :  1.77509e-04
 Reference value :  1.77510e-04
 Reference value :  1.77512e-04
 Reference value :  1.77513e-04
 Reference value :  1.77514e-04
 Reference value :  1.77516e-04
 Reference value :  1.77517e-04
 Reference value :  1.77519e-04
 Reference value :  1.77523e-04
 Reference value :  1.77528e-04
 Reference value :  1.77538e-04
 Reference value :  1.77558e-04
 Reference value :  1.77598e-04
 Reference value :  1.77678e-04
 Reference value :  1.77750e-04
 Reference value :  1.77750e-04
 Reference value :  1.77750e-04
 Reference value :  1.77750e-04
 Reference value :  1.77750e-04
 Reference value :  1.77750e-04
 Reference value :  1.77750e-04
 Reference value :  1.77750e-04
 Reference value :  1.77750e-04
 Reference value :  1.77750e-04
 Reference value :  1.77750e-04
 Reference value :  1.77750e-04
 Reference value :  1.77750e-04
 Reference value :  1.77751e-04
 Reference value :  1.77751e-04
 Reference value :  1.77751e-04
 Reference value :  1.77752e-04
 Reference value :  1.77753e-04
 Reference value :  1.77753e-04
 Reference value :  1.77754e-04
 Reference value :  1.77755e-04
 Reference value :  1.77756e-04
 Reference value :  1.77757e-04
 Reference value :  1.77758e-04
 Reference value :  1.77759e-04
 Reference value :  1.77760e-04
 Reference value :  1.77762e-04
 Reference value :  1.77764e-04
 Reference value :  1.77768e-04
 Reference value :  1.77773e-04
 Reference value :  1.77783e-04
 Reference value :  1.77803e-04
 Reference value :  1.77843e-04
 Reference value :  1.77922e-04
 Reference value :  1.78000e-04
 Reference value :  1.78000e-04
 Reference value :  1.78000e-04
 Reference value :  1.78000e-04
 Reference value :  1.78000e-04
 Reference value :  1.78000e-04
 Reference value :  1.78000e-04
 Reference value :  1.78000e-04
 Reference value :  1.78000e-04
 Reference value :  1.78000e-04
 Reference value :  1.78000e-04
 Reference value :  1.78001e-04
 Reference value :  1.78001e-04
 Reference value :  1.78001e-04
 Reference value :  1.78002e-04
 Reference value :  1.78003e-04
 Reference value :  1.78003e-04
 Reference value :  1.78004e-04
 Reference value :  1.78005e-04
 Reference value :  1.78005e-04
 Reference value :  1.78006e-04
 Reference value :  1.78007e-04
 Reference value :  1.78008e-04
 Reference value :  1.78009e-04
 Reference value :  1.78010e-04
 Reference value :  1.78011e-04
 Reference value :  1.78013e-04
 Reference value :  1.78016e-04
 Reference value :  1.78019e-04
 Reference value :  1.78021e-04
 Reference value :  1.78024e-04
 Reference value :  1.78027e-04
 Reference value :  1.78030e-04
 Reference value :  1.78036e-04
 Reference value :  1.78043e-04
 Reference value :  1.78054e-04
 Reference value :  1.78071e-04
 Reference value :  1.78099e-04
 Reference value :  1.78148e-04
 Reference value :  1.78228e-04
 Reference value :  1.78250e-04
 Reference value :  1.78250e-04
 Reference value :  1.78250e-04
 Reference value :  1.78250e-04
 Reference value :  1.78250e-04
 Reference value :  1.78250e-04
 Reference value :  1.78250e-04
 Reference value :  1.78250e-04
 Reference value :  1.78250e-04
 Reference value :  1.78250e-04
 Reference value :  1.78250e-04
 Reference value :  1.78250e-04
 Reference value :  1.78250e-04
 Reference value :  1.78251e-04
 Reference value :  1.78251e-04
 Reference value :  1.78251e-04
 Reference value :  1.78252e-04
 Reference value :  1.78253e-04
 Reference value :  1.78254e-04
 Reference value :  1.78255e-04
 Reference value :  1.78256e-04
 Reference value :  1.78257e-04
 Reference value :  1.78258e-04
 Reference value :  1.78260e-04
 Reference value :  1.78262e-04
 Reference value :  1.78265e-04
 Reference value :  1.78269e-04
 Reference value :  1.78276e-04
 Reference value :  1.78289e-04
 Reference value :  1.78315e-04
 Reference value :  1.78366e-04
 Reference value :  1.78470e-04
 Reference value :  1.78500e-04
No. of Data Rows : 27885
ngspice-44 done
