
Note: Compatibility modes selected: hs a


Circuit: ** sch_path: /home/samantha/cace/sar-adc-using-sky130-pdk/runs/run_2025-09-02_21-28-41/parameters/dnl/run_0/sar_output_dnl.sch

option SCALE: Scale is set to 1e-06 for instance and model parameters
option SCALE: Scale is set to 1e-06 for instance and model parameters
option SCALE: Scale is set to 1e-06 for instance and model parameters
option SCALE: Scale is set to 1e-06 for instance and model parameters
Doing analysis at TEMP = 27.000000 and TNOM = 27.000000

Using KLU as Direct Linear Solver
Operating point simulation skipped by 'uic',
  now using transient initial conditions.
 Reference value :  1.00000e-12
 Reference value :  1.08400e-12
 Reference value :  1.70640e-12
 Reference value :  4.40773e-12
 Reference value :  1.35591e-11
 Reference value :  5.79488e-11
 Reference value :  1.05073e-10
 Reference value :  1.76097e-10
 Reference value :  6.79997e-10
 Reference value :  1.39919e-09
 Reference value :  2.48769e-09
 Reference value :  4.16736e-09
 Reference value :  6.25156e-09
 Reference value :  7.69019e-09
 Reference value :  9.18978e-09
 Reference value :  1.16237e-08
 Reference value :  1.26113e-08
 Reference value :  1.44462e-08
 Reference value :  1.89114e-08
 Reference value :  2.89584e-08
 Reference value :  4.20702e-08
 Reference value :  1.04400e-07
 Reference value :  2.50110e-07
 Reference value :  2.50200e-07
 Reference value :  2.50253e-07
 Reference value :  2.50561e-07
 Reference value :  2.51387e-07
 Reference value :  2.51835e-07
 Reference value :  2.52922e-07
 Reference value :  2.54233e-07
 Reference value :  2.55496e-07
 Reference value :  2.58498e-07
 Reference value :  2.62754e-07
 Reference value :  2.85957e-07
 Reference value :  3.29017e-07
 Reference value :  3.46469e-07
 Reference value :  3.59627e-07
 Reference value :  3.75396e-07
 Reference value :  4.53798e-07
 Reference value :  5.00030e-07
 Reference value :  5.00108e-07
 Reference value :  5.00220e-07
 Reference value :  5.00863e-07
 Reference value :  5.01733e-07
 Reference value :  5.03195e-07
 Reference value :  5.04408e-07
 Reference value :  5.07251e-07
 Reference value :  5.09707e-07
 Reference value :  5.12568e-07
 Reference value :  5.15814e-07
 Reference value :  5.19961e-07
 Reference value :  5.29717e-07
 Reference value :  6.56641e-07
 Reference value :  7.50130e-07
 Reference value :  7.50208e-07
 Reference value :  7.50256e-07
 Reference value :  7.50601e-07
 Reference value :  7.51714e-07
 Reference value :  7.52727e-07
 Reference value :  7.54008e-07
 Reference value :  7.55246e-07
 Reference value :  7.56692e-07
 Reference value :  7.58669e-07
 Reference value :  7.61400e-07
 Reference value :  7.80000e-07
 Reference value :  8.60519e-07
 Reference value :  1.00001e-06
 Reference value :  1.00010e-06
 Reference value :  1.00016e-06
 Reference value :  1.00052e-06
 Reference value :  1.00131e-06
 Reference value :  1.00230e-06
 Reference value :  1.00334e-06
 Reference value :  1.00456e-06
 Reference value :  1.00583e-06
 Reference value :  1.00734e-06
 Reference value :  1.00945e-06
 Reference value :  1.01149e-06
 Reference value :  1.01346e-06
 Reference value :  1.01524e-06
 Reference value :  1.01720e-06
 Reference value :  1.01938e-06
 Reference value :  1.02676e-06
 Reference value :  1.06121e-06
 Reference value :  1.13066e-06
 Reference value :  1.15741e-06
 Reference value :  1.17313e-06
 Reference value :  1.20044e-06
 Reference value :  1.23301e-06
 Reference value :  1.25013e-06
 Reference value :  1.25021e-06
 Reference value :  1.25032e-06
 Reference value :  1.25083e-06
 Reference value :  1.25170e-06
 Reference value :  1.25271e-06
 Reference value :  1.25401e-06
 Reference value :  1.25525e-06
 Reference value :  1.25676e-06
 Reference value :  1.26014e-06
 Reference value :  1.27640e-06
 Reference value :  1.39688e-06
 Reference value :  1.50003e-06
 Reference value :  1.50011e-06
 Reference value :  1.50022e-06
 Reference value :  1.50086e-06
 Reference value :  1.50231e-06
 Reference value :  1.50333e-06
 Reference value :  1.50455e-06
 Reference value :  1.50638e-06
 Reference value :  1.50715e-06
 Reference value :  1.50887e-06
 Reference value :  1.51094e-06
 Reference value :  1.51812e-06
 Reference value :  1.55383e-06
 Reference value :  1.75010e-06
 Reference value :  1.75013e-06
 Reference value :  1.75021e-06
 Reference value :  1.75032e-06
 Reference value :  1.75084e-06
 Reference value :  1.75171e-06
 Reference value :  1.75273e-06
 Reference value :  1.75402e-06
 Reference value :  1.75527e-06
 Reference value :  1.75689e-06
 Reference value :  1.76273e-06
 Reference value :  1.79242e-06
 Reference value :  2.00000e-06
 Reference value :  2.00007e-06
 Reference value :  2.00012e-06
 Reference value :  2.00034e-06
 Reference value :  2.00086e-06
 Reference value :  2.00182e-06
 Reference value :  2.00278e-06
 Reference value :  2.00390e-06
 Reference value :  2.00521e-06
 Reference value :  2.00653e-06
 Reference value :  2.00853e-06
 Reference value :  2.01007e-06
 Reference value :  2.01276e-06
 Reference value :  2.01376e-06
 Reference value :  2.01584e-06
 Reference value :  2.01789e-06
 Reference value :  2.02242e-06
 Reference value :  2.03848e-06
 Reference value :  2.10859e-06
 Reference value :  2.19946e-06
 Reference value :  2.25010e-06
 Reference value :  2.25013e-06
 Reference value :  2.25021e-06
 Reference value :  2.25032e-06
 Reference value :  2.25060e-06
 Reference value :  2.25127e-06
 Reference value :  2.25216e-06
 Reference value :  2.25352e-06
 Reference value :  2.25404e-06
 Reference value :  2.25527e-06
 Reference value :  2.25678e-06
 Reference value :  2.26319e-06
 Reference value :  2.29474e-06
 Reference value :  2.39253e-06
 Reference value :  2.50001e-06
 Reference value :  2.50010e-06
 Reference value :  2.50016e-06
 Reference value :  2.50052e-06
 Reference value :  2.50131e-06
 Reference value :  2.50231e-06
 Reference value :  2.50333e-06
 Reference value :  2.50455e-06
 Reference value :  2.50638e-06
 Reference value :  2.50716e-06
 Reference value :  2.50888e-06
 Reference value :  2.51095e-06
 Reference value :  2.51806e-06
 Reference value :  2.55293e-06
 Reference value :  2.75010e-06
 Reference value :  2.75017e-06
 Reference value :  2.75022e-06
 Reference value :  2.75045e-06
 Reference value :  2.75084e-06
 Reference value :  2.75171e-06
 Reference value :  2.75273e-06
 Reference value :  2.75402e-06
 Reference value :  2.75527e-06
 Reference value :  2.75802e-06
 Reference value :  2.76785e-06
 Reference value :  2.82344e-06
 Reference value :  3.00001e-06
 Reference value :  3.00010e-06
 Reference value :  3.00016e-06
 Reference value :  3.00052e-06
 Reference value :  3.00131e-06
 Reference value :  3.00231e-06
 Reference value :  3.00332e-06
 Reference value :  3.00449e-06
 Reference value :  3.00585e-06
 Reference value :  3.00852e-06
 Reference value :  3.01006e-06
 Reference value :  3.01275e-06
 Reference value :  3.01375e-06
 Reference value :  3.01583e-06
 Reference value :  3.01788e-06
 Reference value :  3.02065e-06
 Reference value :  3.02959e-06
 Reference value :  3.03340e-06
 Reference value :  3.03998e-06
 Reference value :  3.04647e-06
 Reference value :  3.05238e-06
 Reference value :  3.06774e-06
 Reference value :  3.08826e-06
 Reference value :  3.15739e-06
 Reference value :  3.25011e-06
 Reference value :  3.25020e-06
 Reference value :  3.25026e-06
 Reference value :  3.25060e-06
 Reference value :  3.25127e-06
 Reference value :  3.25216e-06
 Reference value :  3.25346e-06
 Reference value :  3.25396e-06
 Reference value :  3.25513e-06
 Reference value :  3.25584e-06
 Reference value :  3.25981e-06
 Reference value :  3.27443e-06
 Reference value :  3.38374e-06
 Reference value :  3.50003e-06
 Reference value :  3.50011e-06
 Reference value :  3.50016e-06
 Reference value :  3.50052e-06
 Reference value :  3.50131e-06
 Reference value :  3.50223e-06
 Reference value :  3.50322e-06
 Reference value :  3.50442e-06
 Reference value :  3.50522e-06
 Reference value :  3.50671e-06
 Reference value :  3.50832e-06
 Reference value :  3.51030e-06
 Reference value :  3.51793e-06
 Reference value :  3.57495e-06
 Reference value :  3.75011e-06
 Reference value :  3.75017e-06
 Reference value :  3.75021e-06
 Reference value :  3.75032e-06
 Reference value :  3.75083e-06
 Reference value :  3.75170e-06
 Reference value :  3.75270e-06
 Reference value :  3.75401e-06
 Reference value :  3.75527e-06
 Reference value :  3.75680e-06
 Reference value :  3.75765e-06
 Reference value :  3.75979e-06
 Reference value :  3.76679e-06
 Reference value :  3.79469e-06
 Reference value :  3.91436e-06
 Reference value :  4.00003e-06
 Reference value :  4.00010e-06
 Reference value :  4.00016e-06
 Reference value :  4.00052e-06
 Reference value :  4.00131e-06
 Reference value :  4.00231e-06
 Reference value :  4.00334e-06
 Reference value :  4.00457e-06
 Reference value :  4.00582e-06
 Reference value :  4.00733e-06
 Reference value :  4.00943e-06
 Reference value :  4.01155e-06
 Reference value :  4.01354e-06
 Reference value :  4.01534e-06
 Reference value :  4.01732e-06
 Reference value :  4.01970e-06
 Reference value :  4.02776e-06
 Reference value :  4.05899e-06
 Reference value :  4.08598e-06
 Reference value :  4.12009e-06
 Reference value :  4.13234e-06
 Reference value :  4.15254e-06
 Reference value :  4.21687e-06
 Reference value :  4.25013e-06
 Reference value :  4.25021e-06
 Reference value :  4.25032e-06
 Reference value :  4.25054e-06
 Reference value :  4.25098e-06
 Reference value :  4.25194e-06
 Reference value :  4.25312e-06
 Reference value :  4.25438e-06
 Reference value :  4.25561e-06
 Reference value :  4.25735e-06
 Reference value :  4.26488e-06
 Reference value :  4.31122e-06
 Reference value :  4.50000e-06
 Reference value :  4.50007e-06
 Reference value :  4.50012e-06
 Reference value :  4.50035e-06
 Reference value :  4.50093e-06
 Reference value :  4.50196e-06
 Reference value :  4.50243e-06
 Reference value :  4.50347e-06
 Reference value :  4.50471e-06
 Reference value :  4.50648e-06
 Reference value :  4.50836e-06
 Reference value :  4.50928e-06
 Reference value :  4.51137e-06
 Reference value :  4.51876e-06
 Reference value :  4.55961e-06
 Reference value :  4.75010e-06
 Reference value :  4.75017e-06
 Reference value :  4.75021e-06
 Reference value :  4.75026e-06
 Reference value :  4.75054e-06
 Reference value :  4.75099e-06
 Reference value :  4.75194e-06
 Reference value :  4.75311e-06
 Reference value :  4.75440e-06
 Reference value :  4.75566e-06
 Reference value :  4.75643e-06
 Reference value :  4.75808e-06
 Reference value :  4.76191e-06
 Reference value :  4.77286e-06
 Reference value :  4.81634e-06
 Reference value :  5.00000e-06
 Reference value :  5.00007e-06
 Reference value :  5.00012e-06
 Reference value :  5.00035e-06
 Reference value :  5.00093e-06
 Reference value :  5.00196e-06
 Reference value :  5.00297e-06
 Reference value :  5.00350e-06
 Reference value :  5.00459e-06
 Reference value :  5.00583e-06
 Reference value :  5.00816e-06
 Reference value :  5.01065e-06
 Reference value :  5.01293e-06
 Reference value :  5.01377e-06
 Reference value :  5.01552e-06
 Reference value :  5.01744e-06
 Reference value :  5.01993e-06
 Reference value :  5.02932e-06
 Reference value :  5.03480e-06
 Reference value :  5.04526e-06
 Reference value :  5.04908e-06
 Reference value :  5.05611e-06
 Reference value :  5.07133e-06
 Reference value :  5.10775e-06
 Reference value :  5.16151e-06
 Reference value :  5.18323e-06
 Reference value :  5.20477e-06
 Reference value :  5.24723e-06
 Reference value :  5.25011e-06
 Reference value :  5.25020e-06
 Reference value :  5.25026e-06
 Reference value :  5.25039e-06
 Reference value :  5.25097e-06
 Reference value :  5.25193e-06
 Reference value :  5.25309e-06
 Reference value :  5.25435e-06
 Reference value :  5.25559e-06
 Reference value :  5.25738e-06
 Reference value :  5.26487e-06
 Reference value :  5.30559e-06
 Reference value :  5.50000e-06
 Reference value :  5.50003e-06
 Reference value :  5.50010e-06
 Reference value :  5.50016e-06
 Reference value :  5.50035e-06
 Reference value :  5.50093e-06
 Reference value :  5.50196e-06
 Reference value :  5.50293e-06
 Reference value :  5.50347e-06
 Reference value :  5.50471e-06
 Reference value :  5.50560e-06
 Reference value :  5.50648e-06
 Reference value :  5.50836e-06
 Reference value :  5.50928e-06
 Reference value :  5.51137e-06
 Reference value :  5.51874e-06
 Reference value :  5.55931e-06
 Reference value :  5.75010e-06
 Reference value :  5.75017e-06
 Reference value :  5.75022e-06
 Reference value :  5.75032e-06
 Reference value :  5.75054e-06
 Reference value :  5.75147e-06
 Reference value :  5.75245e-06
 Reference value :  5.75382e-06
 Reference value :  5.75440e-06
 Reference value :  5.75566e-06
 Reference value :  5.75643e-06
 Reference value :  5.75808e-06
 Reference value :  5.76025e-06
 Reference value :  5.76405e-06
 Reference value :  5.78092e-06
 Reference value :  5.85145e-06
 Reference value :  6.00001e-06
 Reference value :  6.00010e-06
 Reference value :  6.00012e-06
 Reference value :  6.00035e-06
 Reference value :  6.00093e-06
 Reference value :  6.00196e-06
 Reference value :  6.00297e-06
 Reference value :  6.00350e-06
 Reference value :  6.00459e-06
 Reference value :  6.00583e-06
 Reference value :  6.00731e-06
 Reference value :  6.00969e-06
 Reference value :  6.01065e-06
 Reference value :  6.01292e-06
 Reference value :  6.01376e-06
 Reference value :  6.01552e-06
 Reference value :  6.01744e-06
 Reference value :  6.01994e-06
 Reference value :  6.02749e-06
 Reference value :  6.03375e-06
 Reference value :  6.03633e-06
 Reference value :  6.03882e-06
 Reference value :  6.05277e-06
 Reference value :  6.09945e-06
 Reference value :  6.25010e-06
 Reference value :  6.25013e-06
 Reference value :  6.25020e-06
 Reference value :  6.25022e-06
 Reference value :  6.25032e-06
 Reference value :  6.25054e-06
 Reference value :  6.25097e-06
 Reference value :  6.25193e-06
 Reference value :  6.25309e-06
 Reference value :  6.25435e-06
 Reference value :  6.25556e-06
 Reference value :  6.25718e-06
 Reference value :  6.26432e-06
 Reference value :  6.30236e-06
 Reference value :  6.50000e-06
 Reference value :  6.50003e-06
 Reference value :  6.50010e-06
 Reference value :  6.50016e-06
 Reference value :  6.50035e-06
 Reference value :  6.50093e-06
 Reference value :  6.50196e-06
 Reference value :  6.50245e-06
 Reference value :  6.50350e-06
 Reference value :  6.50490e-06
 Reference value :  6.50641e-06
 Reference value :  6.50828e-06
 Reference value :  6.51019e-06
 Reference value :  6.51246e-06
 Reference value :  6.52696e-06
 Reference value :  6.63429e-06
 Reference value :  6.75013e-06
 Reference value :  6.75020e-06
 Reference value :  6.75025e-06
 Reference value :  6.75039e-06
 Reference value :  6.75074e-06
 Reference value :  6.75147e-06
 Reference value :  6.75244e-06
 Reference value :  6.75382e-06
 Reference value :  6.75440e-06
 Reference value :  6.75566e-06
 Reference value :  6.75643e-06
 Reference value :  6.76116e-06
 Reference value :  6.78295e-06
 Reference value :  6.94148e-06
 Reference value :  7.00003e-06
 Reference value :  7.00010e-06
 Reference value :  7.00016e-06
 Reference value :  7.00035e-06
 Reference value :  7.00093e-06
 Reference value :  7.00196e-06
 Reference value :  7.00245e-06
 Reference value :  7.00349e-06
 Reference value :  7.00466e-06
 Reference value :  7.00588e-06
 Reference value :  7.00871e-06
 Reference value :  7.01186e-06
 Reference value :  7.01336e-06
 Reference value :  7.01441e-06
 Reference value :  7.01651e-06
 Reference value :  7.01890e-06
 Reference value :  7.02490e-06
 Reference value :  7.03567e-06
 Reference value :  7.06536e-06
 Reference value :  7.12472e-06
 Reference value :  7.23285e-06
 Reference value :  7.25011e-06
 Reference value :  7.25017e-06
 Reference value :  7.25021e-06
 Reference value :  7.25025e-06
 Reference value :  7.25039e-06
 Reference value :  7.25071e-06
 Reference value :  7.25142e-06
 Reference value :  7.25240e-06
 Reference value :  7.25379e-06
 Reference value :  7.25433e-06
 Reference value :  7.25555e-06
 Reference value :  7.25634e-06
 Reference value :  7.25885e-06
 Reference value :  7.26957e-06
 Reference value :  7.29908e-06
 Reference value :  7.40963e-06
 Reference value :  7.48237e-06
 Reference value :  7.50001e-06
 Reference value :  7.50007e-06
 Reference value :  7.50011e-06
 Reference value :  7.50016e-06
 Reference value :  7.50035e-06
 Reference value :  7.50093e-06
 Reference value :  7.50196e-06
 Reference value :  7.50243e-06
 Reference value :  7.50347e-06
 Reference value :  7.50471e-06
 Reference value :  7.50561e-06
 Reference value :  7.50648e-06
 Reference value :  7.50837e-06
 Reference value :  7.50929e-06
 Reference value :  7.51139e-06
 Reference value :  7.51511e-06
 Reference value :  7.53752e-06
 Reference value :  7.68400e-06
 Reference value :  7.75011e-06
 Reference value :  7.75017e-06
 Reference value :  7.75022e-06
 Reference value :  7.75026e-06
 Reference value :  7.75039e-06
 Reference value :  7.75074e-06
 Reference value :  7.75099e-06
 Reference value :  7.75194e-06
 Reference value :  7.75311e-06
 Reference value :  7.75440e-06
 Reference value :  7.75566e-06
 Reference value :  7.75644e-06
 Reference value :  7.75809e-06
 Reference value :  7.76025e-06
 Reference value :  7.76404e-06
 Reference value :  7.77276e-06
 Reference value :  7.79420e-06
 Reference value :  7.91369e-06
 Reference value :  8.00003e-06
 Reference value :  8.00010e-06
 Reference value :  8.00012e-06
 Reference value :  8.00035e-06
 Reference value :  8.00093e-06
 Reference value :  8.00196e-06
 Reference value :  8.00245e-06
 Reference value :  8.00350e-06
 Reference value :  8.00458e-06
 Reference value :  8.00583e-06
 Reference value :  8.00731e-06
 Reference value :  8.00898e-06
 Reference value :  8.00967e-06
 Reference value :  8.01132e-06
 Reference value :  8.01398e-06
 Reference value :  8.01738e-06
 Reference value :  8.02081e-06
 Reference value :  8.02473e-06
 Reference value :  8.04708e-06
 Reference value :  8.17773e-06
 Reference value :  8.25011e-06
 Reference value :  8.25017e-06
 Reference value :  8.25021e-06
 Reference value :  8.25026e-06
 Reference value :  8.25045e-06
 Reference value :  8.25080e-06
 Reference value :  8.25161e-06
 Reference value :  8.25257e-06
 Reference value :  8.25406e-06
 Reference value :  8.25597e-06
 Reference value :  8.25856e-06
 Reference value :  8.26808e-06
 Reference value :  8.33469e-06
 Reference value :  8.50000e-06
 Reference value :  8.50000e-06
 Reference value :  8.50000e-06
 Reference value :  8.50001e-06
 Reference value :  8.50002e-06
 Reference value :  8.50010e-06
 Reference value :  8.50012e-06
 Reference value :  8.50018e-06
 Reference value :  8.50045e-06
 Reference value :  8.50121e-06
 Reference value :  8.50217e-06
 Reference value :  8.50323e-06
 Reference value :  8.50448e-06
 Reference value :  8.50499e-06
 Reference value :  8.50620e-06
 Reference value :  8.50830e-06
 Reference value :  8.51895e-06
 Reference value :  8.52436e-06
 Reference value :  8.52875e-06
 Reference value :  8.53193e-06
 Reference value :  8.53472e-06
 Reference value :  8.53698e-06
 Reference value :  8.54119e-06
 Reference value :  8.54583e-06
 Reference value :  8.55190e-06
 Reference value :  8.55533e-06
 Reference value :  8.57222e-06
 Reference value :  8.60020e-06
 Reference value :  8.66341e-06
 Reference value :  8.69952e-06
 Reference value :  8.75010e-06
 Reference value :  8.75013e-06
 Reference value :  8.75020e-06
 Reference value :  8.75022e-06
 Reference value :  8.75032e-06
 Reference value :  8.75060e-06
 Reference value :  8.75127e-06
 Reference value :  8.75216e-06
 Reference value :  8.75351e-06
 Reference value :  8.75403e-06
 Reference value :  8.75525e-06
 Reference value :  8.75598e-06
 Reference value :  8.75831e-06
 Reference value :  8.76313e-06
 Reference value :  8.77641e-06
 Reference value :  8.88900e-06
 Reference value :  8.95820e-06
 Reference value :  9.00000e-06
 Reference value :  9.00003e-06
 Reference value :  9.00010e-06
 Reference value :  9.00012e-06
 Reference value :  9.00022e-06
 Reference value :  9.00052e-06
 Reference value :  9.00131e-06
 Reference value :  9.00175e-06
 Reference value :  9.00267e-06
 Reference value :  9.00320e-06
 Reference value :  9.00440e-06
 Reference value :  9.00521e-06
 Reference value :  9.00720e-06
 Reference value :  9.00969e-06
 Reference value :  9.01241e-06
 Reference value :  9.01403e-06
 Reference value :  9.01742e-06
 Reference value :  9.02291e-06
 Reference value :  9.03356e-06
 Reference value :  9.10867e-06
 Reference value :  9.25011e-06
 Reference value :  9.25017e-06
 Reference value :  9.25021e-06
 Reference value :  9.25026e-06
 Reference value :  9.25044e-06
 Reference value :  9.25083e-06
 Reference value :  9.25170e-06
 Reference value :  9.25270e-06
 Reference value :  9.25349e-06
 Reference value :  9.25400e-06
 Reference value :  9.25525e-06
 Reference value :  9.25592e-06
 Reference value :  9.25672e-06
 Reference value :  9.25871e-06
 Reference value :  9.26146e-06
 Reference value :  9.27198e-06
 Reference value :  9.29554e-06
 Reference value :  9.43206e-06
 Reference value :  9.50003e-06
 Reference value :  9.50010e-06
 Reference value :  9.50016e-06
 Reference value :  9.50034e-06
 Reference value :  9.50086e-06
 Reference value :  9.50182e-06
 Reference value :  9.50231e-06
 Reference value :  9.50334e-06
 Reference value :  9.50393e-06
 Reference value :  9.50457e-06
 Reference value :  9.50582e-06
 Reference value :  9.50733e-06
 Reference value :  9.50944e-06
 Reference value :  9.51047e-06
 Reference value :  9.51153e-06
 Reference value :  9.51350e-06
 Reference value :  9.51528e-06
 Reference value :  9.51723e-06
 Reference value :  9.51834e-06
 Reference value :  9.52135e-06
 Reference value :  9.52328e-06
 Reference value :  9.53421e-06
 Reference value :  9.60066e-06
 Reference value :  9.63006e-06
 Reference value :  9.65483e-06
 Reference value :  9.66939e-06
 Reference value :  9.68196e-06
 Reference value :  9.70740e-06
 Reference value :  9.75010e-06
 Reference value :  9.75011e-06
 Reference value :  9.75013e-06
 Reference value :  9.75017e-06
 Reference value :  9.75020e-06
 Reference value :  9.75022e-06
 Reference value :  9.75026e-06
 Reference value :  9.75032e-06
 Reference value :  9.75044e-06
 Reference value :  9.75060e-06
 Reference value :  9.75083e-06
 Reference value :  9.75170e-06
 Reference value :  9.75271e-06
 Reference value :  9.75350e-06
 Reference value :  9.75401e-06
 Reference value :  9.75524e-06
 Reference value :  9.75598e-06
 Reference value :  9.75831e-06
 Reference value :  9.76753e-06
 Reference value :  9.79403e-06
 Reference value :  9.89243e-06
 Reference value :  1.00000e-05
 Reference value :  1.00001e-05
 Reference value :  1.00001e-05
 Reference value :  1.00002e-05
 Reference value :  1.00003e-05
 Reference value :  1.00009e-05
 Reference value :  1.00018e-05
 Reference value :  1.00028e-05
 Reference value :  1.00033e-05
 Reference value :  1.00045e-05
 Reference value :  1.00055e-05
 Reference value :  1.00071e-05
 Reference value :  1.00080e-05
 Reference value :  1.00089e-05
 Reference value :  1.00109e-05
 Reference value :  1.00179e-05
 Reference value :  1.00518e-05
 Reference value :  1.01561e-05
 Reference value :  1.02501e-05
 Reference value :  1.02502e-05
 Reference value :  1.02502e-05
 Reference value :  1.02503e-05
 Reference value :  1.02504e-05
 Reference value :  1.02508e-05
 Reference value :  1.02517e-05
 Reference value :  1.02527e-05
 Reference value :  1.02535e-05
 Reference value :  1.02540e-05
 Reference value :  1.02546e-05
 Reference value :  1.02553e-05
 Reference value :  1.02560e-05
 Reference value :  1.02569e-05
 Reference value :  1.02580e-05
 Reference value :  1.02602e-05
 Reference value :  1.02627e-05
 Reference value :  1.02678e-05
 Reference value :  1.02925e-05
 Reference value :  1.03848e-05
 Reference value :  1.05000e-05
 Reference value :  1.05000e-05
 Reference value :  1.05001e-05
 Reference value :  1.05001e-05
 Reference value :  1.05001e-05
 Reference value :  1.05001e-05
 Reference value :  1.05002e-05
 Reference value :  1.05003e-05
 Reference value :  1.05005e-05
 Reference value :  1.05009e-05
 Reference value :  1.05013e-05
 Reference value :  1.05018e-05
 Reference value :  1.05023e-05
 Reference value :  1.05028e-05
 Reference value :  1.05033e-05
 Reference value :  1.05039e-05
 Reference value :  1.05045e-05
 Reference value :  1.05052e-05
 Reference value :  1.05059e-05
 Reference value :  1.05075e-05
 Reference value :  1.05101e-05
 Reference value :  1.05115e-05
 Reference value :  1.05128e-05
 Reference value :  1.05138e-05
 Reference value :  1.05158e-05
 Reference value :  1.05168e-05
 Reference value :  1.05191e-05
 Reference value :  1.05224e-05
 Reference value :  1.05304e-05
 Reference value :  1.05533e-05
 Reference value :  1.06085e-05
 Reference value :  1.06568e-05
 Reference value :  1.07038e-05
 Reference value :  1.07501e-05
 Reference value :  1.07502e-05
 Reference value :  1.07502e-05
 Reference value :  1.07503e-05
 Reference value :  1.07503e-05
 Reference value :  1.07506e-05
 Reference value :  1.07508e-05
 Reference value :  1.07513e-05
 Reference value :  1.07517e-05
 Reference value :  1.07521e-05
 Reference value :  1.07535e-05
 Reference value :  1.07540e-05
 Reference value :  1.07546e-05
 Reference value :  1.07560e-05
 Reference value :  1.07583e-05
 Reference value :  1.07631e-05
 Reference value :  1.07942e-05
 Reference value :  1.08678e-05
 Reference value :  1.09653e-05
 Reference value :  1.10000e-05
 Reference value :  1.10001e-05
 Reference value :  1.10001e-05
 Reference value :  1.10002e-05
 Reference value :  1.10003e-05
 Reference value :  1.10009e-05
 Reference value :  1.10018e-05
 Reference value :  1.10028e-05
 Reference value :  1.10033e-05
 Reference value :  1.10039e-05
 Reference value :  1.10055e-05
 Reference value :  1.10072e-05
 Reference value :  1.10080e-05
 Reference value :  1.10089e-05
 Reference value :  1.10109e-05
 Reference value :  1.10146e-05
 Reference value :  1.10344e-05
 Reference value :  1.10862e-05
 Reference value :  1.12501e-05
 Reference value :  1.12501e-05
 Reference value :  1.12502e-05
 Reference value :  1.12502e-05
 Reference value :  1.12503e-05
 Reference value :  1.12506e-05
 Reference value :  1.12513e-05
 Reference value :  1.12517e-05
 Reference value :  1.12527e-05
 Reference value :  1.12535e-05
 Reference value :  1.12540e-05
 Reference value :  1.12553e-05
 Reference value :  1.12569e-05
 Reference value :  1.12602e-05
 Reference value :  1.12678e-05
 Reference value :  1.12926e-05
 Reference value :  1.13851e-05
 Reference value :  1.15000e-05
 Reference value :  1.15001e-05
 Reference value :  1.15001e-05
 Reference value :  1.15002e-05
 Reference value :  1.15003e-05
 Reference value :  1.15009e-05
 Reference value :  1.15018e-05
 Reference value :  1.15028e-05
 Reference value :  1.15033e-05
 Reference value :  1.15045e-05
 Reference value :  1.15059e-05
 Reference value :  1.15075e-05
 Reference value :  1.15101e-05
 Reference value :  1.15115e-05
 Reference value :  1.15128e-05
 Reference value :  1.15137e-05
 Reference value :  1.15147e-05
 Reference value :  1.15158e-05
 Reference value :  1.15168e-05
 Reference value :  1.15191e-05
 Reference value :  1.15224e-05
 Reference value :  1.15296e-05
 Reference value :  1.15335e-05
 Reference value :  1.15404e-05
 Reference value :  1.15442e-05
 Reference value :  1.15469e-05
 Reference value :  1.15528e-05
 Reference value :  1.15615e-05
 Reference value :  1.15734e-05
 Reference value :  1.15876e-05
 Reference value :  1.16564e-05
 Reference value :  1.17501e-05
 Reference value :  1.17502e-05
 Reference value :  1.17502e-05
 Reference value :  1.17503e-05
 Reference value :  1.17504e-05
 Reference value :  1.17508e-05
 Reference value :  1.17517e-05
 Reference value :  1.17527e-05
 Reference value :  1.17535e-05
 Reference value :  1.17540e-05
 Reference value :  1.17551e-05
 Reference value :  1.17558e-05
 Reference value :  1.17581e-05
 Reference value :  1.17627e-05
 Reference value :  1.17744e-05
 Reference value :  1.18213e-05
 Reference value :  1.20000e-05
 Reference value :  1.20001e-05
 Reference value :  1.20001e-05
 Reference value :  1.20002e-05
 Reference value :  1.20003e-05
 Reference value :  1.20009e-05
 Reference value :  1.20017e-05
 Reference value :  1.20027e-05
 Reference value :  1.20032e-05
 Reference value :  1.20044e-05
 Reference value :  1.20052e-05
 Reference value :  1.20067e-05
 Reference value :  1.20083e-05
 Reference value :  1.20103e-05
 Reference value :  1.20138e-05
 Reference value :  1.20259e-05
 Reference value :  1.21390e-05
 Reference value :  1.22501e-05
 Reference value :  1.22502e-05
 Reference value :  1.22502e-05
 Reference value :  1.22503e-05
 Reference value :  1.22504e-05
 Reference value :  1.22508e-05
 Reference value :  1.22517e-05
 Reference value :  1.22527e-05
 Reference value :  1.22535e-05
 Reference value :  1.22540e-05
 Reference value :  1.22553e-05
 Reference value :  1.22560e-05
 Reference value :  1.22568e-05
 Reference value :  1.22587e-05
 Reference value :  1.22617e-05
 Reference value :  1.22668e-05
 Reference value :  1.22802e-05
 Reference value :  1.23537e-05
 Reference value :  1.25000e-05
 Reference value :  1.25001e-05
 Reference value :  1.25001e-05
 Reference value :  1.25002e-05
 Reference value :  1.25005e-05
 Reference value :  1.25013e-05
 Reference value :  1.25023e-05
 Reference value :  1.25033e-05
 Reference value :  1.25046e-05
 Reference value :  1.25058e-05
 Reference value :  1.25073e-05
 Reference value :  1.25094e-05
 Reference value :  1.25105e-05
 Reference value :  1.25116e-05
 Reference value :  1.25127e-05
 Reference value :  1.25135e-05
 Reference value :  1.25153e-05
 Reference value :  1.25163e-05
 Reference value :  1.25184e-05
 Reference value :  1.25215e-05
 Reference value :  1.25327e-05
 Reference value :  1.25581e-05
 Reference value :  1.25709e-05
 Reference value :  1.26201e-05
 Reference value :  1.26338e-05
 Reference value :  1.26556e-05
 Reference value :  1.26873e-05
 Reference value :  1.27501e-05
 Reference value :  1.27501e-05
 Reference value :  1.27502e-05
 Reference value :  1.27502e-05
 Reference value :  1.27503e-05
 Reference value :  1.27505e-05
 Reference value :  1.27510e-05
 Reference value :  1.27519e-05
 Reference value :  1.27531e-05
 Reference value :  1.27544e-05
 Reference value :  1.27556e-05
 Reference value :  1.27565e-05
 Reference value :  1.27591e-05
 Reference value :  1.27649e-05
 Reference value :  1.27847e-05
 Reference value :  1.28622e-05
 Reference value :  1.30000e-05
 Reference value :  1.30000e-05
 Reference value :  1.30001e-05
 Reference value :  1.30001e-05
 Reference value :  1.30002e-05
 Reference value :  1.30006e-05
 Reference value :  1.30009e-05
 Reference value :  1.30020e-05
 Reference value :  1.30024e-05
 Reference value :  1.30035e-05
 Reference value :  1.30041e-05
 Reference value :  1.30056e-05
 Reference value :  1.30065e-05
 Reference value :  1.30084e-05
 Reference value :  1.30093e-05
 Reference value :  1.30114e-05
 Reference value :  1.30187e-05
 Reference value :  1.30376e-05
 Reference value :  1.31857e-05
 Reference value :  1.32501e-05
 Reference value :  1.32502e-05
 Reference value :  1.32502e-05
 Reference value :  1.32503e-05
 Reference value :  1.32504e-05
 Reference value :  1.32507e-05
 Reference value :  1.32515e-05
 Reference value :  1.32524e-05
 Reference value :  1.32538e-05
 Reference value :  1.32544e-05
 Reference value :  1.32550e-05
 Reference value :  1.32564e-05
 Reference value :  1.32581e-05
 Reference value :  1.32603e-05
 Reference value :  1.32640e-05
 Reference value :  1.32729e-05
 Reference value :  1.32947e-05
 Reference value :  1.33511e-05
 Reference value :  1.35000e-05
 Reference value :  1.35000e-05
 Reference value :  1.35001e-05
 Reference value :  1.35001e-05
 Reference value :  1.35002e-05
 Reference value :  1.35006e-05
 Reference value :  1.35015e-05
 Reference value :  1.35024e-05
 Reference value :  1.35035e-05
 Reference value :  1.35046e-05
 Reference value :  1.35058e-05
 Reference value :  1.35073e-05
 Reference value :  1.35097e-05
 Reference value :  1.35107e-05
 Reference value :  1.35117e-05
 Reference value :  1.35129e-05
 Reference value :  1.35138e-05
 Reference value :  1.35155e-05
 Reference value :  1.35174e-05
 Reference value :  1.35199e-05
 Reference value :  1.35243e-05
 Reference value :  1.35348e-05
 Reference value :  1.35454e-05
 Reference value :  1.35491e-05
 Reference value :  1.35559e-05
 Reference value :  1.35662e-05
 Reference value :  1.35855e-05
 Reference value :  1.36254e-05
 Reference value :  1.36944e-05
 Reference value :  1.37236e-05
 Reference value :  1.37501e-05
 Reference value :  1.37501e-05
 Reference value :  1.37502e-05
 Reference value :  1.37502e-05
 Reference value :  1.37503e-05
 Reference value :  1.37505e-05
 Reference value :  1.37510e-05
 Reference value :  1.37519e-05
 Reference value :  1.37531e-05
 Reference value :  1.37538e-05
 Reference value :  1.37543e-05
 Reference value :  1.37555e-05
 Reference value :  1.37563e-05
 Reference value :  1.37588e-05
 Reference value :  1.37701e-05
 Reference value :  1.38408e-05
 Reference value :  1.40000e-05
 Reference value :  1.40000e-05
 Reference value :  1.40001e-05
 Reference value :  1.40001e-05
 Reference value :  1.40002e-05
 Reference value :  1.40006e-05
 Reference value :  1.40009e-05
 Reference value :  1.40020e-05
 Reference value :  1.40024e-05
 Reference value :  1.40035e-05
 Reference value :  1.40047e-05
 Reference value :  1.40056e-05
 Reference value :  1.40065e-05
 Reference value :  1.40074e-05
 Reference value :  1.40093e-05
 Reference value :  1.40114e-05
 Reference value :  1.40151e-05
 Reference value :  1.40376e-05
 Reference value :  1.41011e-05
 Reference value :  1.42501e-05
 Reference value :  1.42502e-05
 Reference value :  1.42502e-05
 Reference value :  1.42503e-05
 Reference value :  1.42504e-05
 Reference value :  1.42507e-05
 Reference value :  1.42515e-05
 Reference value :  1.42524e-05
 Reference value :  1.42538e-05
 Reference value :  1.42544e-05
 Reference value :  1.42557e-05
 Reference value :  1.42564e-05
 Reference value :  1.42581e-05
 Reference value :  1.42603e-05
 Reference value :  1.42641e-05
 Reference value :  1.42729e-05
 Reference value :  1.42948e-05
 Reference value :  1.44211e-05
 Reference value :  1.45000e-05
 Reference value :  1.45001e-05
 Reference value :  1.45001e-05
 Reference value :  1.45002e-05
 Reference value :  1.45006e-05
 Reference value :  1.45015e-05
 Reference value :  1.45024e-05
 Reference value :  1.45035e-05
 Reference value :  1.45046e-05
 Reference value :  1.45058e-05
 Reference value :  1.45073e-05
 Reference value :  1.45097e-05
 Reference value :  1.45107e-05
 Reference value :  1.45117e-05
 Reference value :  1.45129e-05
 Reference value :  1.45138e-05
 Reference value :  1.45155e-05
 Reference value :  1.45175e-05
 Reference value :  1.45199e-05
 Reference value :  1.45243e-05
 Reference value :  1.45268e-05
 Reference value :  1.45286e-05
 Reference value :  1.45325e-05
 Reference value :  1.45367e-05
 Reference value :  1.45455e-05
 Reference value :  1.45649e-05
 Reference value :  1.46146e-05
 Reference value :  1.47501e-05
 Reference value :  1.47501e-05
 Reference value :  1.47502e-05
 Reference value :  1.47502e-05
 Reference value :  1.47503e-05
 Reference value :  1.47505e-05
 Reference value :  1.47510e-05
 Reference value :  1.47519e-05
 Reference value :  1.47531e-05
 Reference value :  1.47538e-05
 Reference value :  1.47543e-05
 Reference value :  1.47556e-05
 Reference value :  1.47563e-05
 Reference value :  1.47588e-05
 Reference value :  1.47643e-05
 Reference value :  1.48022e-05
 Reference value :  1.49255e-05
 Reference value :  1.50000e-05
 Reference value :  1.50001e-05
 Reference value :  1.50001e-05
 Reference value :  1.50002e-05
 Reference value :  1.50006e-05
 Reference value :  1.50015e-05
 Reference value :  1.50024e-05
 Reference value :  1.50035e-05
 Reference value :  1.50049e-05
 Reference value :  1.50064e-05
 Reference value :  1.50083e-05
 Reference value :  1.50102e-05
 Reference value :  1.50113e-05
 Reference value :  1.50190e-05
 Reference value :  1.50427e-05
 Reference value :  1.51330e-05
 Reference value :  1.52501e-05
 Reference value :  1.52502e-05
 Reference value :  1.52502e-05
 Reference value :  1.52503e-05
 Reference value :  1.52504e-05
 Reference value :  1.52507e-05
 Reference value :  1.52515e-05
 Reference value :  1.52524e-05
 Reference value :  1.52538e-05
 Reference value :  1.52544e-05
 Reference value :  1.52557e-05
 Reference value :  1.52564e-05
 Reference value :  1.52589e-05
 Reference value :  1.52707e-05
 Reference value :  1.53054e-05
 Reference value :  1.54401e-05
 Reference value :  1.55011e-05
 Reference value :  1.55033e-05
 Reference value :  1.55044e-05
 Reference value :  1.55055e-05
 Reference value :  1.55064e-05
 Reference value :  1.55082e-05
 Reference value :  1.55106e-05
 Reference value :  1.55119e-05
 Reference value :  1.55133e-05
 Reference value :  1.55143e-05
 Reference value :  1.55164e-05
 Reference value :  1.55174e-05
 Reference value :  1.55197e-05
 Reference value :  1.55229e-05
 Reference value :  1.55308e-05
 Reference value :  1.55494e-05
 Reference value :  1.56017e-05
 Reference value :  1.57501e-05
 Reference value :  1.57501e-05
 Reference value :  1.57502e-05
 Reference value :  1.57502e-05
 Reference value :  1.57503e-05
 Reference value :  1.57505e-05
 Reference value :  1.57509e-05
 Reference value :  1.57515e-05
 Reference value :  1.57524e-05
 Reference value :  1.57538e-05
 Reference value :  1.57543e-05
 Reference value :  1.57549e-05
 Reference value :  1.57563e-05
 Reference value :  1.57587e-05
 Reference value :  1.57640e-05
 Reference value :  1.57795e-05
 Reference value :  1.58259e-05
 Reference value :  1.59690e-05
 Reference value :  1.60000e-05
 Reference value :  1.60001e-05
 Reference value :  1.60001e-05
 Reference value :  1.60002e-05
 Reference value :  1.60003e-05
 Reference value :  1.60009e-05
 Reference value :  1.60020e-05
 Reference value :  1.60024e-05
 Reference value :  1.60035e-05
 Reference value :  1.60049e-05
 Reference value :  1.60064e-05
 Reference value :  1.60083e-05
 Reference value :  1.60093e-05
 Reference value :  1.60113e-05
 Reference value :  1.60190e-05
 Reference value :  1.60425e-05
 Reference value :  1.61309e-05
 Reference value :  1.62501e-05
 Reference value :  1.62502e-05
 Reference value :  1.62502e-05
 Reference value :  1.62503e-05
 Reference value :  1.62504e-05
 Reference value :  1.62507e-05
 Reference value :  1.62515e-05
 Reference value :  1.62524e-05
 Reference value :  1.62531e-05
 Reference value :  1.62544e-05
 Reference value :  1.62557e-05
 Reference value :  1.62564e-05
 Reference value :  1.62589e-05
 Reference value :  1.62646e-05
 Reference value :  1.62830e-05
 Reference value :  1.64420e-05
 Reference value :  1.65000e-05
 Reference value :  1.65001e-05
 Reference value :  1.65001e-05
 Reference value :  1.65002e-05
 Reference value :  1.65003e-05
 Reference value :  1.65009e-05
 Reference value :  1.65020e-05
 Reference value :  1.65024e-05
 Reference value :  1.65035e-05
 Reference value :  1.65047e-05
 Reference value :  1.65053e-05
 Reference value :  1.65066e-05
 Reference value :  1.65074e-05
 Reference value :  1.65081e-05
 Reference value :  1.65100e-05
 Reference value :  1.65131e-05
 Reference value :  1.65425e-05
 Reference value :  1.67501e-05
 Reference value :  1.67501e-05
 Reference value :  1.67502e-05
 Reference value :  1.67502e-05
 Reference value :  1.67503e-05
 Reference value :  1.67506e-05
 Reference value :  1.67512e-05
 Reference value :  1.67520e-05
 Reference value :  1.67533e-05
 Reference value :  1.67550e-05
 Reference value :  1.67560e-05
 Reference value :  1.67585e-05
 Reference value :  1.67680e-05
 Reference value :  1.67967e-05
 Reference value :  1.69117e-05
 Reference value :  1.70000e-05
 Reference value :  1.70000e-05
 Reference value :  1.70000e-05
 Reference value :  1.70000e-05
 Reference value :  1.70000e-05
 Reference value :  1.70000e-05
 Reference value :  1.70001e-05
 Reference value :  1.70001e-05
 Reference value :  1.70002e-05
 Reference value :  1.70004e-05
 Reference value :  1.70012e-05
 Reference value :  1.70022e-05
 Reference value :  1.70032e-05
 Reference value :  1.70039e-05
 Reference value :  1.70050e-05
 Reference value :  1.70062e-05
 Reference value :  1.70083e-05
 Reference value :  1.70132e-05
 Reference value :  1.70244e-05
 Reference value :  1.70288e-05
 Reference value :  1.70320e-05
 Reference value :  1.70343e-05
 Reference value :  1.70362e-05
 Reference value :  1.70397e-05
 Reference value :  1.70426e-05
 Reference value :  1.70479e-05
 Reference value :  1.70506e-05
 Reference value :  1.70573e-05
 Reference value :  1.70679e-05
 Reference value :  1.70890e-05
 Reference value :  1.71497e-05
 Reference value :  1.71899e-05
 Reference value :  1.72371e-05
 Reference value :  1.72501e-05
 Reference value :  1.72502e-05
 Reference value :  1.72502e-05
 Reference value :  1.72503e-05
 Reference value :  1.72504e-05
 Reference value :  1.72508e-05
 Reference value :  1.72517e-05
 Reference value :  1.72527e-05
 Reference value :  1.72535e-05
 Reference value :  1.72540e-05
 Reference value :  1.72552e-05
 Reference value :  1.72560e-05
 Reference value :  1.72583e-05
 Reference value :  1.72631e-05
 Reference value :  1.72764e-05
 Reference value :  1.73256e-05
 Reference value :  1.74582e-05
 Reference value :  1.75000e-05
 Reference value :  1.75000e-05
 Reference value :  1.75001e-05
 Reference value :  1.75002e-05
 Reference value :  1.75003e-05
 Reference value :  1.75009e-05
 Reference value :  1.75017e-05
 Reference value :  1.75027e-05
 Reference value :  1.75032e-05
 Reference value :  1.75038e-05
 Reference value :  1.75052e-05
 Reference value :  1.75072e-05
 Reference value :  1.75097e-05
 Reference value :  1.75109e-05
 Reference value :  1.75124e-05
 Reference value :  1.75140e-05
 Reference value :  1.75174e-05
 Reference value :  1.75230e-05
 Reference value :  1.75336e-05
 Reference value :  1.76034e-05
 Reference value :  1.77501e-05
 Reference value :  1.77501e-05
 Reference value :  1.77502e-05
 Reference value :  1.77502e-05
 Reference value :  1.77503e-05
 Reference value :  1.77506e-05
 Reference value :  1.77513e-05
 Reference value :  1.77521e-05
 Reference value :  1.77535e-05
 Reference value :  1.77540e-05
 Reference value :  1.77553e-05
 Reference value :  1.77559e-05
 Reference value :  1.77567e-05
 Reference value :  1.77576e-05
 Reference value :  1.77598e-05
 Reference value :  1.77615e-05
 Reference value :  1.77664e-05
 Reference value :  1.77802e-05
 Reference value :  1.78196e-05
 Reference value :  1.79311e-05
 Reference value :  1.80012e-05
 Reference value :  1.80035e-05
 Reference value :  1.80047e-05
 Reference value :  1.80059e-05
 Reference value :  1.80067e-05
 Reference value :  1.80090e-05
 Reference value :  1.80112e-05
 Reference value :  1.80122e-05
 Reference value :  1.80143e-05
 Reference value :  1.80160e-05
 Reference value :  1.80170e-05
 Reference value :  1.80190e-05
 Reference value :  1.80222e-05
 Reference value :  1.80303e-05
 Reference value :  1.80556e-05
 Reference value :  1.81154e-05
 Reference value :  1.81451e-05
 Reference value :  1.81647e-05
 Reference value :  1.81817e-05
 Reference value :  1.82164e-05
 Reference value :  1.82501e-05
 Reference value :  1.82501e-05
 Reference value :  1.82502e-05
 Reference value :  1.82502e-05
 Reference value :  1.82503e-05
 Reference value :  1.82506e-05
 Reference value :  1.82513e-05
 Reference value :  1.82517e-05
 Reference value :  1.82527e-05
 Reference value :  1.82534e-05
 Reference value :  1.82539e-05
 Reference value :  1.82551e-05
 Reference value :  1.82566e-05
 Reference value :  1.82597e-05
 Reference value :  1.82663e-05
 Reference value :  1.82888e-05
 Reference value :  1.83785e-05
 Reference value :  1.85000e-05
 Reference value :  1.85000e-05
 Reference value :  1.85001e-05
 Reference value :  1.85002e-05
 Reference value :  1.85003e-05
 Reference value :  1.85009e-05
 Reference value :  1.85018e-05
 Reference value :  1.85028e-05
 Reference value :  1.85033e-05
 Reference value :  1.85045e-05
 Reference value :  1.85055e-05
 Reference value :  1.85064e-05
 Reference value :  1.85071e-05
 Reference value :  1.85089e-05
 Reference value :  1.85109e-05
 Reference value :  1.85121e-05
 Reference value :  1.85179e-05
 Reference value :  1.85519e-05
 Reference value :  1.86568e-05
 Reference value :  1.87501e-05
 Reference value :  1.87502e-05
 Reference value :  1.87502e-05
 Reference value :  1.87503e-05
 Reference value :  1.87504e-05
 Reference value :  1.87508e-05
 Reference value :  1.87517e-05
 Reference value :  1.87527e-05
 Reference value :  1.87535e-05
 Reference value :  1.87540e-05
 Reference value :  1.87553e-05
 Reference value :  1.87569e-05
 Reference value :  1.87602e-05
 Reference value :  1.87677e-05
 Reference value :  1.87921e-05
 Reference value :  1.88839e-05
 Reference value :  1.90000e-05
 Reference value :  1.90001e-05
 Reference value :  1.90001e-05
 Reference value :  1.90002e-05
 Reference value :  1.90003e-05
 Reference value :  1.90009e-05
 Reference value :  1.90018e-05
 Reference value :  1.90028e-05
 Reference value :  1.90033e-05
 Reference value :  1.90045e-05
 Reference value :  1.90059e-05
 Reference value :  1.90075e-05
 Reference value :  1.90101e-05
 Reference value :  1.90115e-05
 Reference value :  1.90128e-05
 Reference value :  1.90138e-05
 Reference value :  1.90158e-05
 Reference value :  1.90168e-05
 Reference value :  1.90191e-05
 Reference value :  1.90224e-05
 Reference value :  1.90304e-05
 Reference value :  1.90532e-05
 Reference value :  1.91084e-05
 Reference value :  1.91607e-05
 Reference value :  1.92090e-05
 Reference value :  1.92501e-05
 Reference value :  1.92502e-05
 Reference value :  1.92502e-05
 Reference value :  1.92503e-05
 Reference value :  1.92504e-05
 Reference value :  1.92508e-05
 Reference value :  1.92517e-05
 Reference value :  1.92527e-05
 Reference value :  1.92535e-05
 Reference value :  1.92540e-05
 Reference value :  1.92553e-05
 Reference value :  1.92560e-05
 Reference value :  1.92583e-05
 Reference value :  1.92631e-05
 Reference value :  1.92943e-05
 Reference value :  1.93778e-05
 Reference value :  1.95000e-05
 Reference value :  1.95003e-05
 Reference value :  1.95013e-05
 Reference value :  1.95020e-05
 Reference value :  1.95028e-05
 Reference value :  1.95039e-05
 Reference value :  1.95054e-05
 Reference value :  1.95073e-05
 Reference value :  1.95082e-05
 Reference value :  1.95092e-05
 Reference value :  1.95117e-05
 Reference value :  1.95211e-05
 Reference value :  1.95444e-05
 Reference value :  1.96166e-05
 Reference value :  1.97501e-05
 Reference value :  1.97501e-05
 Reference value :  1.97502e-05
 Reference value :  1.97502e-05
 Reference value :  1.97503e-05
 Reference value :  1.97506e-05
 Reference value :  1.97513e-05
 Reference value :  1.97522e-05
 Reference value :  1.97535e-05
 Reference value :  1.97540e-05
 Reference value :  1.97553e-05
 Reference value :  1.97569e-05
 Reference value :  1.97602e-05
 Reference value :  1.97679e-05
 Reference value :  1.97927e-05
 Reference value :  2.00000e-05
 Reference value :  2.00000e-05
 Reference value :  2.00001e-05
 Reference value :  2.00001e-05
 Reference value :  2.00002e-05
 Reference value :  2.00005e-05
 Reference value :  2.00013e-05
 Reference value :  2.00018e-05
 Reference value :  2.00028e-05
 Reference value :  2.00033e-05
 Reference value :  2.00045e-05
 Reference value :  2.00059e-05
 Reference value :  2.00075e-05
 Reference value :  2.00101e-05
 Reference value :  2.00115e-05
 Reference value :  2.00128e-05
 Reference value :  2.00137e-05
 Reference value :  2.00158e-05
 Reference value :  2.00168e-05
 Reference value :  2.00191e-05
 Reference value :  2.00224e-05
 Reference value :  2.00297e-05
 Reference value :  2.00342e-05
 Reference value :  2.00412e-05
 Reference value :  2.00452e-05
 Reference value :  2.00479e-05
 Reference value :  2.00509e-05
 Reference value :  2.00544e-05
 Reference value :  2.00638e-05
 Reference value :  2.00759e-05
 Reference value :  2.00938e-05
 Reference value :  2.01387e-05
 Reference value :  2.02501e-05
 Reference value :  2.02501e-05
 Reference value :  2.02502e-05
 Reference value :  2.02502e-05
 Reference value :  2.02503e-05
 Reference value :  2.02506e-05
 Reference value :  2.02513e-05
 Reference value :  2.02517e-05
 Reference value :  2.02527e-05
 Reference value :  2.02535e-05
 Reference value :  2.02540e-05
 Reference value :  2.02551e-05
 Reference value :  2.02559e-05
 Reference value :  2.02581e-05
 Reference value :  2.02628e-05
 Reference value :  2.02746e-05
 Reference value :  2.03220e-05
 Reference value :  2.05021e-05
 Reference value :  2.05062e-05
 Reference value :  2.05084e-05
 Reference value :  2.05105e-05
 Reference value :  2.05150e-05
 Reference value :  2.05210e-05
 Reference value :  2.05317e-05
 Reference value :  2.05552e-05
 Reference value :  2.05780e-05
 Reference value :  2.06129e-05
 Reference value :  2.07501e-05
 Reference value :  2.07501e-05
 Reference value :  2.07502e-05
 Reference value :  2.07502e-05
 Reference value :  2.07502e-05
 Reference value :  2.07502e-05
 Reference value :  2.07503e-05
 Reference value :  2.07503e-05
 Reference value :  2.07504e-05
 Reference value :  2.07506e-05
 Reference value :  2.07508e-05
 Reference value :  2.07513e-05
 Reference value :  2.07517e-05
 Reference value :  2.07521e-05
 Reference value :  2.07527e-05
 Reference value :  2.07532e-05
 Reference value :  2.07536e-05
 Reference value :  2.07542e-05
 Reference value :  2.07547e-05
 Reference value :  2.07552e-05
 Reference value :  2.07560e-05
 Reference value :  2.07567e-05
 Reference value :  2.07576e-05
 Reference value :  2.07586e-05
 Reference value :  2.07597e-05
 Reference value :  2.07615e-05
 Reference value :  2.07665e-05
 Reference value :  2.07723e-05
 Reference value :  2.07961e-05
 Reference value :  2.08204e-05
 Reference value :  2.08618e-05
 Reference value :  2.10000e-05
 Reference value :  2.10000e-05
 Reference value :  2.10000e-05
 Reference value :  2.10001e-05
 Reference value :  2.10001e-05
 Reference value :  2.10001e-05
 Reference value :  2.10002e-05
 Reference value :  2.10003e-05
 Reference value :  2.10005e-05
 Reference value :  2.10009e-05
 Reference value :  2.10013e-05
 Reference value :  2.10018e-05
 Reference value :  2.10023e-05
 Reference value :  2.10028e-05
 Reference value :  2.10033e-05
 Reference value :  2.10039e-05
 Reference value :  2.10046e-05
 Reference value :  2.10052e-05
 Reference value :  2.10058e-05
 Reference value :  2.10065e-05
 Reference value :  2.10073e-05
 Reference value :  2.10083e-05
 Reference value :  2.10094e-05
 Reference value :  2.10105e-05
 Reference value :  2.10116e-05
 Reference value :  2.10127e-05
 Reference value :  2.10135e-05
 Reference value :  2.10144e-05
 Reference value :  2.10153e-05
 Reference value :  2.10163e-05
 Reference value :  2.10173e-05
 Reference value :  2.10185e-05
 Reference value :  2.10196e-05
 Reference value :  2.10215e-05
 Reference value :  2.10235e-05
 Reference value :  2.10276e-05
 Reference value :  2.10428e-05
 Reference value :  2.10753e-05
 Reference value :  2.10901e-05
 Reference value :  2.11116e-05
 Reference value :  2.11286e-05
 Reference value :  2.11432e-05
 Reference value :  2.11668e-05
 Reference value :  2.12036e-05
 Reference value :  2.12501e-05
 Reference value :  2.12501e-05
 Reference value :  2.12501e-05
 Reference value :  2.12502e-05
 Reference value :  2.12502e-05
 Reference value :  2.12502e-05
 Reference value :  2.12503e-05
 Reference value :  2.12503e-05
 Reference value :  2.12504e-05
 Reference value :  2.12507e-05
 Reference value :  2.12510e-05
 Reference value :  2.12515e-05
 Reference value :  2.12519e-05
 Reference value :  2.12524e-05
 Reference value :  2.12531e-05
 Reference value :  2.12538e-05
 Reference value :  2.12544e-05
 Reference value :  2.12550e-05
 Reference value :  2.12556e-05
 Reference value :  2.12565e-05
 Reference value :  2.12574e-05
 Reference value :  2.12613e-05
 Reference value :  2.12649e-05
 Reference value :  2.12847e-05
 Reference value :  2.13105e-05
 Reference value :  2.14655e-05
 Reference value :  2.15000e-05
 Reference value :  2.15000e-05
 Reference value :  2.15001e-05
 Reference value :  2.15001e-05
 Reference value :  2.15001e-05
 Reference value :  2.15001e-05
 Reference value :  2.15002e-05
 Reference value :  2.15003e-05
 Reference value :  2.15006e-05
 Reference value :  2.15009e-05
 Reference value :  2.15015e-05
 Reference value :  2.15020e-05
 Reference value :  2.15024e-05
 Reference value :  2.15029e-05
 Reference value :  2.15035e-05
 Reference value :  2.15041e-05
 Reference value :  2.15047e-05
 Reference value :  2.15056e-05
 Reference value :  2.15065e-05
 Reference value :  2.15074e-05
 Reference value :  2.15084e-05
 Reference value :  2.15093e-05
 Reference value :  2.15103e-05
 Reference value :  2.15114e-05
 Reference value :  2.15151e-05
 Reference value :  2.15255e-05
 Reference value :  2.15588e-05
 Reference value :  2.16857e-05
 Reference value :  2.17501e-05
 Reference value :  2.17501e-05
 Reference value :  2.17501e-05
 Reference value :  2.17502e-05
 Reference value :  2.17502e-05
 Reference value :  2.17502e-05
 Reference value :  2.17502e-05
 Reference value :  2.17503e-05
 Reference value :  2.17503e-05
 Reference value :  2.17504e-05
 Reference value :  2.17505e-05
 Reference value :  2.17507e-05
 Reference value :  2.17510e-05
 Reference value :  2.17515e-05
 Reference value :  2.17519e-05
 Reference value :  2.17524e-05
 Reference value :  2.17531e-05
 Reference value :  2.17538e-05
 Reference value :  2.17544e-05
 Reference value :  2.17550e-05
 Reference value :  2.17557e-05
 Reference value :  2.17564e-05
 Reference value :  2.17573e-05
 Reference value :  2.17581e-05
 Reference value :  2.17603e-05
 Reference value :  2.17619e-05
 Reference value :  2.17641e-05
 Reference value :  2.17672e-05
 Reference value :  2.17729e-05
 Reference value :  2.17809e-05
 Reference value :  2.17947e-05
 Reference value :  2.18163e-05
 Reference value :  2.19205e-05
 Reference value :  2.20013e-05
 Reference value :  2.20039e-05
 Reference value :  2.20052e-05
 Reference value :  2.20066e-05
 Reference value :  2.20078e-05
 Reference value :  2.20091e-05
 Reference value :  2.20102e-05
 Reference value :  2.20113e-05
 Reference value :  2.20124e-05
 Reference value :  2.20136e-05
 Reference value :  2.20144e-05
 Reference value :  2.20153e-05
 Reference value :  2.20163e-05
 Reference value :  2.20173e-05
 Reference value :  2.20183e-05
 Reference value :  2.20194e-05
 Reference value :  2.20210e-05
 Reference value :  2.20257e-05
 Reference value :  2.20297e-05
 Reference value :  2.20397e-05
 Reference value :  2.20446e-05
 Reference value :  2.20478e-05
 Reference value :  2.20548e-05
 Reference value :  2.20651e-05
 Reference value :  2.20857e-05
 Reference value :  2.21318e-05
 Reference value :  2.22266e-05
 Reference value :  2.22501e-05
 Reference value :  2.22501e-05
 Reference value :  2.22502e-05
 Reference value :  2.22502e-05
 Reference value :  2.22503e-05
 Reference value :  2.22504e-05
 Reference value :  2.22505e-05
 Reference value :  2.22509e-05
 Reference value :  2.22515e-05
 Reference value :  2.22519e-05
 Reference value :  2.22529e-05
 Reference value :  2.22542e-05
 Reference value :  2.22554e-05
 Reference value :  2.22561e-05
 Reference value :  2.22584e-05
 Reference value :  2.22634e-05
 Reference value :  2.22777e-05
 Reference value :  2.23151e-05
 Reference value :  2.23611e-05
 Reference value :  2.24257e-05
 Reference value :  2.25000e-05
 Reference value :  2.25001e-05
 Reference value :  2.25001e-05
 Reference value :  2.25002e-05
 Reference value :  2.25003e-05
 Reference value :  2.25009e-05
 Reference value :  2.25020e-05
 Reference value :  2.25024e-05
 Reference value :  2.25035e-05
 Reference value :  2.25047e-05
 Reference value :  2.25056e-05
 Reference value :  2.25065e-05
 Reference value :  2.25074e-05
 Reference value :  2.25093e-05
 Reference value :  2.25103e-05
 Reference value :  2.25114e-05
 Reference value :  2.25151e-05
 Reference value :  2.25255e-05
 Reference value :  2.26007e-05
 Reference value :  2.27501e-05
 Reference value :  2.27501e-05
 Reference value :  2.27502e-05
 Reference value :  2.27502e-05
 Reference value :  2.27503e-05
 Reference value :  2.27505e-05
 Reference value :  2.27510e-05
 Reference value :  2.27519e-05
 Reference value :  2.27531e-05
 Reference value :  2.27544e-05
 Reference value :  2.27557e-05
 Reference value :  2.27564e-05
 Reference value :  2.27581e-05
 Reference value :  2.27603e-05
 Reference value :  2.27619e-05
 Reference value :  2.27672e-05
 Reference value :  2.27809e-05
 Reference value :  2.28164e-05
 Reference value :  2.29207e-05
 Reference value :  2.30013e-05
 Reference value :  2.30039e-05
 Reference value :  2.30052e-05
 Reference value :  2.30065e-05
 Reference value :  2.30078e-05
 Reference value :  2.30090e-05
 Reference value :  2.30113e-05
 Reference value :  2.30123e-05
 Reference value :  2.30143e-05
 Reference value :  2.30162e-05
 Reference value :  2.30183e-05
 Reference value :  2.30195e-05
 Reference value :  2.30214e-05
 Reference value :  2.30230e-05
 Reference value :  2.30262e-05
 Reference value :  2.30281e-05
 Reference value :  2.30322e-05
 Reference value :  2.30388e-05
 Reference value :  2.30521e-05
 Reference value :  2.31162e-05
 Reference value :  2.32476e-05
 Reference value :  2.32501e-05
 Reference value :  2.32501e-05
 Reference value :  2.32502e-05
 Reference value :  2.32502e-05
 Reference value :  2.32503e-05
 Reference value :  2.32505e-05
 Reference value :  2.32509e-05
 Reference value :  2.32511e-05
 Reference value :  2.32515e-05
 Reference value :  2.32519e-05
 Reference value :  2.32524e-05
 Reference value :  2.32529e-05
 Reference value :  2.32537e-05
 Reference value :  2.32543e-05
 Reference value :  2.32549e-05
 Reference value :  2.32555e-05
 Reference value :  2.32563e-05
 Reference value :  2.32571e-05
 Reference value :  2.32587e-05
 Reference value :  2.32640e-05
 Reference value :  2.32694e-05
 Reference value :  2.32960e-05
 Reference value :  2.33786e-05
 Reference value :  2.35000e-05
 Reference value :  2.35000e-05
 Reference value :  2.35001e-05
 Reference value :  2.35001e-05
 Reference value :  2.35001e-05
 Reference value :  2.35001e-05
 Reference value :  2.35002e-05
 Reference value :  2.35006e-05
 Reference value :  2.35009e-05
 Reference value :  2.35015e-05
 Reference value :  2.35020e-05
 Reference value :  2.35024e-05
 Reference value :  2.35035e-05
 Reference value :  2.35041e-05
 Reference value :  2.35049e-05
 Reference value :  2.35057e-05
 Reference value :  2.35064e-05
 Reference value :  2.35073e-05
 Reference value :  2.35083e-05
 Reference value :  2.35102e-05
 Reference value :  2.35112e-05
 Reference value :  2.35148e-05
 Reference value :  2.35190e-05
 Reference value :  2.35268e-05
 Reference value :  2.35728e-05
 Reference value :  2.36332e-05
 Reference value :  2.37501e-05
 Reference value :  2.37501e-05
 Reference value :  2.37502e-05
 Reference value :  2.37502e-05
 Reference value :  2.37502e-05
 Reference value :  2.37502e-05
 Reference value :  2.37503e-05
 Reference value :  2.37504e-05
 Reference value :  2.37507e-05
 Reference value :  2.37510e-05
 Reference value :  2.37515e-05
 Reference value :  2.37519e-05
 Reference value :  2.37531e-05
 Reference value :  2.37538e-05
 Reference value :  2.37544e-05
 Reference value :  2.37550e-05
 Reference value :  2.37564e-05
 Reference value :  2.37589e-05
 Reference value :  2.37645e-05
 Reference value :  2.37829e-05
 Reference value :  2.38502e-05
 Reference value :  2.40000e-05
 Reference value :  2.40000e-05
 Reference value :  2.40001e-05
 Reference value :  2.40001e-05
 Reference value :  2.40002e-05
 Reference value :  2.40006e-05
 Reference value :  2.40009e-05
 Reference value :  2.40020e-05
 Reference value :  2.40024e-05
 Reference value :  2.40035e-05
 Reference value :  2.40041e-05
 Reference value :  2.40047e-05
 Reference value :  2.40059e-05
 Reference value :  2.40074e-05
 Reference value :  2.40105e-05
 Reference value :  2.40119e-05
 Reference value :  2.40134e-05
 Reference value :  2.40144e-05
 Reference value :  2.40154e-05
 Reference value :  2.40175e-05
 Reference value :  2.40202e-05
 Reference value :  2.40249e-05
 Reference value :  2.40357e-05
 Reference value :  2.40696e-05
 Reference value :  2.41468e-05
 Reference value :  2.42501e-05
 Reference value :  2.42501e-05
 Reference value :  2.42502e-05
 Reference value :  2.42502e-05
 Reference value :  2.42503e-05
 Reference value :  2.42505e-05
 Reference value :  2.42510e-05
 Reference value :  2.42519e-05
 Reference value :  2.42531e-05
 Reference value :  2.42538e-05
 Reference value :  2.42544e-05
 Reference value :  2.42556e-05
 Reference value :  2.42564e-05
 Reference value :  2.42589e-05
 Reference value :  2.42645e-05
 Reference value :  2.42825e-05
 Reference value :  2.43452e-05
 Reference value :  2.45000e-05
 Reference value :  2.45000e-05
 Reference value :  2.45001e-05
 Reference value :  2.45001e-05
 Reference value :  2.45002e-05
 Reference value :  2.45006e-05
 Reference value :  2.45015e-05
 Reference value :  2.45024e-05
 Reference value :  2.45030e-05
 Reference value :  2.45035e-05
 Reference value :  2.45041e-05
 Reference value :  2.45049e-05
 Reference value :  2.45064e-05
 Reference value :  2.45083e-05
 Reference value :  2.45093e-05
 Reference value :  2.45102e-05
 Reference value :  2.45112e-05
 Reference value :  2.45148e-05
 Reference value :  2.45268e-05
 Reference value :  2.46322e-05
 Reference value :  2.47501e-05
 Reference value :  2.47502e-05
 Reference value :  2.47502e-05
 Reference value :  2.47503e-05
 Reference value :  2.47504e-05
 Reference value :  2.47507e-05
 Reference value :  2.47515e-05
 Reference value :  2.47519e-05
 Reference value :  2.47531e-05
 Reference value :  2.47544e-05
 Reference value :  2.47557e-05
 Reference value :  2.47564e-05
 Reference value :  2.47589e-05
 Reference value :  2.47645e-05
 Reference value :  2.47829e-05
 Reference value :  2.48501e-05
 Reference value :  2.50000e-05
 Reference value :  2.50000e-05
 Reference value :  2.50001e-05
 Reference value :  2.50001e-05
 Reference value :  2.50002e-05
 Reference value :  2.50006e-05
 Reference value :  2.50015e-05
 Reference value :  2.50020e-05
 Reference value :  2.50024e-05
 Reference value :  2.50035e-05
 Reference value :  2.50047e-05
 Reference value :  2.50059e-05
 Reference value :  2.50074e-05
 Reference value :  2.50081e-05
 Reference value :  2.50100e-05
 Reference value :  2.50131e-05
 Reference value :  2.50257e-05
 Reference value :  2.50759e-05
 Reference value :  2.52501e-05
 Reference value :  2.52502e-05
 Reference value :  2.52502e-05
 Reference value :  2.52503e-05
 Reference value :  2.52504e-05
 Reference value :  2.52508e-05
 Reference value :  2.52516e-05
 Reference value :  2.52526e-05
 Reference value :  2.52533e-05
 Reference value :  2.52550e-05
 Reference value :  2.52560e-05
 Reference value :  2.52585e-05
 Reference value :  2.52632e-05
 Reference value :  2.52775e-05
 Reference value :  2.53350e-05
 Reference value :  2.55000e-05
 Reference value :  2.55000e-05
 Reference value :  2.55000e-05
 Reference value :  2.55000e-05
 Reference value :  2.55000e-05
 Reference value :  2.55000e-05
 Reference value :  2.55000e-05
 Reference value :  2.55001e-05
 Reference value :  2.55001e-05
 Reference value :  2.55001e-05
 Reference value :  2.55003e-05
 Reference value :  2.55007e-05
 Reference value :  2.55017e-05
 Reference value :  2.55022e-05
 Reference value :  2.55032e-05
 Reference value :  2.55045e-05
 Reference value :  2.55050e-05
 Reference value :  2.55062e-05
 Reference value :  2.55083e-05
 Reference value :  2.55132e-05
 Reference value :  2.55244e-05
 Reference value :  2.55288e-05
 Reference value :  2.55320e-05
 Reference value :  2.55343e-05
 Reference value :  2.55364e-05
 Reference value :  2.55380e-05
 Reference value :  2.55408e-05
 Reference value :  2.55441e-05
 Reference value :  2.55490e-05
 Reference value :  2.55561e-05
 Reference value :  2.55652e-05
 Reference value :  2.55848e-05
 Reference value :  2.56374e-05
 Reference value :  2.57234e-05
 Reference value :  2.57501e-05
 Reference value :  2.57502e-05
 Reference value :  2.57502e-05
 Reference value :  2.57503e-05
 Reference value :  2.57504e-05
 Reference value :  2.57508e-05
 Reference value :  2.57513e-05
 Reference value :  2.57521e-05
 Reference value :  2.57535e-05
 Reference value :  2.57540e-05
 Reference value :  2.57552e-05
 Reference value :  2.57560e-05
 Reference value :  2.57583e-05
 Reference value :  2.57631e-05
 Reference value :  2.57762e-05
 Reference value :  2.58264e-05
 Reference value :  2.59611e-05
 Reference value :  2.60000e-05
 Reference value :  2.60000e-05
 Reference value :  2.60001e-05
 Reference value :  2.60001e-05
 Reference value :  2.60002e-05
 Reference value :  2.60005e-05
 Reference value :  2.60013e-05
 Reference value :  2.60017e-05
 Reference value :  2.60027e-05
 Reference value :  2.60032e-05
 Reference value :  2.60044e-05
 Reference value :  2.60061e-05
 Reference value :  2.60073e-05
 Reference value :  2.60085e-05
 Reference value :  2.60109e-05
 Reference value :  2.60125e-05
 Reference value :  2.60140e-05
 Reference value :  2.60174e-05
 Reference value :  2.60230e-05
 Reference value :  2.60325e-05
 Reference value :  2.60559e-05
 Reference value :  2.61483e-05
 Reference value :  2.62501e-05
 Reference value :  2.62502e-05
 Reference value :  2.62502e-05
 Reference value :  2.62503e-05
 Reference value :  2.62504e-05
 Reference value :  2.62508e-05
 Reference value :  2.62517e-05
 Reference value :  2.62527e-05
 Reference value :  2.62535e-05
 Reference value :  2.62540e-05
 Reference value :  2.62552e-05
 Reference value :  2.62559e-05
 Reference value :  2.62567e-05
 Reference value :  2.62587e-05
 Reference value :  2.62615e-05
 Reference value :  2.62664e-05
 Reference value :  2.62802e-05
 Reference value :  2.63611e-05
 Reference value :  2.65000e-05
 Reference value :  2.65012e-05
 Reference value :  2.65035e-05
 Reference value :  2.65047e-05
 Reference value :  2.65067e-05
 Reference value :  2.65089e-05
 Reference value :  2.65101e-05
 Reference value :  2.65112e-05
 Reference value :  2.65123e-05
 Reference value :  2.65143e-05
 Reference value :  2.65161e-05
 Reference value :  2.65171e-05
 Reference value :  2.65191e-05
 Reference value :  2.65223e-05
 Reference value :  2.65307e-05
 Reference value :  2.65551e-05
 Reference value :  2.66118e-05
 Reference value :  2.66409e-05
 Reference value :  2.66638e-05
 Reference value :  2.66746e-05
 Reference value :  2.66846e-05
 Reference value :  2.67065e-05
 Reference value :  2.67382e-05
 Reference value :  2.67501e-05
 Reference value :  2.67502e-05
 Reference value :  2.67502e-05
 Reference value :  2.67503e-05
 Reference value :  2.67504e-05
 Reference value :  2.67508e-05
 Reference value :  2.67517e-05
 Reference value :  2.67527e-05
 Reference value :  2.67534e-05
 Reference value :  2.67539e-05
 Reference value :  2.67551e-05
 Reference value :  2.67566e-05
 Reference value :  2.67597e-05
 Reference value :  2.67663e-05
 Reference value :  2.67886e-05
 Reference value :  2.68777e-05
 Reference value :  2.70000e-05
 Reference value :  2.70000e-05
 Reference value :  2.70001e-05
 Reference value :  2.70001e-05
 Reference value :  2.70002e-05
 Reference value :  2.70003e-05
 Reference value :  2.70009e-05
 Reference value :  2.70013e-05
 Reference value :  2.70018e-05
 Reference value :  2.70028e-05
 Reference value :  2.70033e-05
 Reference value :  2.70039e-05
 Reference value :  2.70055e-05
 Reference value :  2.70071e-05
 Reference value :  2.70080e-05
 Reference value :  2.70089e-05
 Reference value :  2.70109e-05
 Reference value :  2.70145e-05
 Reference value :  2.70240e-05
 Reference value :  2.70519e-05
 Reference value :  2.71568e-05
 Reference value :  2.72501e-05
 Reference value :  2.72502e-05
 Reference value :  2.72502e-05
 Reference value :  2.72503e-05
 Reference value :  2.72504e-05
 Reference value :  2.72508e-05
 Reference value :  2.72517e-05
 Reference value :  2.72527e-05
 Reference value :  2.72535e-05
 Reference value :  2.72540e-05
 Reference value :  2.72553e-05
 Reference value :  2.72569e-05
 Reference value :  2.72602e-05
 Reference value :  2.72677e-05
 Reference value :  2.72921e-05
 Reference value :  2.73839e-05
 Reference value :  2.75000e-05
 Reference value :  2.75001e-05
 Reference value :  2.75001e-05
 Reference value :  2.75002e-05
 Reference value :  2.75005e-05
 Reference value :  2.75013e-05
 Reference value :  2.75023e-05
 Reference value :  2.75033e-05
 Reference value :  2.75045e-05
 Reference value :  2.75052e-05
 Reference value :  2.75059e-05
 Reference value :  2.75075e-05
 Reference value :  2.75101e-05
 Reference value :  2.75115e-05
 Reference value :  2.75128e-05
 Reference value :  2.75138e-05
 Reference value :  2.75158e-05
 Reference value :  2.75168e-05
 Reference value :  2.75191e-05
 Reference value :  2.75224e-05
 Reference value :  2.75304e-05
 Reference value :  2.75532e-05
 Reference value :  2.76084e-05
 Reference value :  2.77268e-05
 Reference value :  2.77501e-05
 Reference value :  2.77502e-05
 Reference value :  2.77502e-05
 Reference value :  2.77503e-05
 Reference value :  2.77504e-05
 Reference value :  2.77508e-05
 Reference value :  2.77517e-05
 Reference value :  2.77527e-05
 Reference value :  2.77535e-05
 Reference value :  2.77540e-05
 Reference value :  2.77553e-05
 Reference value :  2.77560e-05
 Reference value :  2.77583e-05
 Reference value :  2.77631e-05
 Reference value :  2.77765e-05
 Reference value :  2.78271e-05
 Reference value :  2.79025e-05
 Reference value :  2.80000e-05
 Reference value :  2.80008e-05
 Reference value :  2.80025e-05
 Reference value :  2.80034e-05
 Reference value :  2.80042e-05
 Reference value :  2.80051e-05
 Reference value :  2.80061e-05
 Reference value :  2.80070e-05
 Reference value :  2.80088e-05
 Reference value :  2.80099e-05
 Reference value :  2.80123e-05
 Reference value :  2.80187e-05
 Reference value :  2.80392e-05
 Reference value :  2.82212e-05
 Reference value :  2.82501e-05
 Reference value :  2.82502e-05
 Reference value :  2.82502e-05
 Reference value :  2.82503e-05
 Reference value :  2.82504e-05
 Reference value :  2.82508e-05
 Reference value :  2.82517e-05
 Reference value :  2.82527e-05
 Reference value :  2.82535e-05
 Reference value :  2.82540e-05
 Reference value :  2.82552e-05
 Reference value :  2.82568e-05
 Reference value :  2.82598e-05
 Reference value :  2.82763e-05
 Reference value :  2.83210e-05
 Reference value :  2.85000e-05
 Reference value :  2.85000e-05
 Reference value :  2.85001e-05
 Reference value :  2.85001e-05
 Reference value :  2.85002e-05
 Reference value :  2.85005e-05
 Reference value :  2.85013e-05
 Reference value :  2.85023e-05
 Reference value :  2.85033e-05
 Reference value :  2.85045e-05
 Reference value :  2.85052e-05
 Reference value :  2.85059e-05
 Reference value :  2.85075e-05
 Reference value :  2.85101e-05
 Reference value :  2.85115e-05
 Reference value :  2.85128e-05
 Reference value :  2.85137e-05
 Reference value :  2.85158e-05
 Reference value :  2.85168e-05
 Reference value :  2.85191e-05
 Reference value :  2.85224e-05
 Reference value :  2.85298e-05
 Reference value :  2.85383e-05
 Reference value :  2.85415e-05
 Reference value :  2.85455e-05
 Reference value :  2.85482e-05
 Reference value :  2.85548e-05
 Reference value :  2.85644e-05
 Reference value :  2.85761e-05
 Reference value :  2.85954e-05
 Reference value :  2.86427e-05
 Reference value :  2.87501e-05
 Reference value :  2.87501e-05
 Reference value :  2.87502e-05
 Reference value :  2.87502e-05
 Reference value :  2.87503e-05
 Reference value :  2.87506e-05
 Reference value :  2.87513e-05
 Reference value :  2.87517e-05
 Reference value :  2.87527e-05
 Reference value :  2.87535e-05
 Reference value :  2.87540e-05
 Reference value :  2.87551e-05
 Reference value :  2.87559e-05
 Reference value :  2.87582e-05
 Reference value :  2.87628e-05
 Reference value :  2.87746e-05
 Reference value :  2.88220e-05
 Reference value :  2.90000e-05
 Reference value :  2.90021e-05
 Reference value :  2.90062e-05
 Reference value :  2.90084e-05
 Reference value :  2.90127e-05
 Reference value :  2.90175e-05
 Reference value :  2.90252e-05
 Reference value :  2.90548e-05
 Reference value :  2.91122e-05
 Reference value :  2.92501e-05
 Reference value :  2.92501e-05
 Reference value :  2.92502e-05
 Reference value :  2.92502e-05
 Reference value :  2.92503e-05
 Reference value :  2.92506e-05
 Reference value :  2.92513e-05
 Reference value :  2.92521e-05
 Reference value :  2.92527e-05
 Reference value :  2.92536e-05
 Reference value :  2.92547e-05
 Reference value :  2.92552e-05
 Reference value :  2.92560e-05
 Reference value :  2.92576e-05
 Reference value :  2.92586e-05
 Reference value :  2.92615e-05
 Reference value :  2.92665e-05
 Reference value :  2.92805e-05
 Reference value :  2.93205e-05
 Reference value :  2.94321e-05
 Reference value :  2.95000e-05
 Reference value :  2.95001e-05
 Reference value :  2.95001e-05
 Reference value :  2.95002e-05
 Reference value :  2.95003e-05
 Reference value :  2.95009e-05
 Reference value :  2.95018e-05
 Reference value :  2.95028e-05
 Reference value :  2.95033e-05
 Reference value :  2.95046e-05
 Reference value :  2.95058e-05
 Reference value :  2.95073e-05
 Reference value :  2.95094e-05
 Reference value :  2.95105e-05
 Reference value :  2.95116e-05
 Reference value :  2.95127e-05
 Reference value :  2.95135e-05
 Reference value :  2.95153e-05
 Reference value :  2.95163e-05
 Reference value :  2.95183e-05
 Reference value :  2.95213e-05
 Reference value :  2.95266e-05
 Reference value :  2.95405e-05
 Reference value :  2.95710e-05
 Reference value :  2.96104e-05
 Reference value :  2.96293e-05
 Reference value :  2.96454e-05
 Reference value :  2.96706e-05
 Reference value :  2.97029e-05
 Reference value :  2.97501e-05
 Reference value :  2.97501e-05
 Reference value :  2.97502e-05
 Reference value :  2.97502e-05
 Reference value :  2.97503e-05
 Reference value :  2.97503e-05
 Reference value :  2.97505e-05
 Reference value :  2.97510e-05
 Reference value :  2.97519e-05
 Reference value :  2.97531e-05
 Reference value :  2.97538e-05
 Reference value :  2.97544e-05
 Reference value :  2.97556e-05
 Reference value :  2.97565e-05
 Reference value :  2.97591e-05
 Reference value :  2.97649e-05
 Reference value :  2.97847e-05
 Reference value :  2.98622e-05
 Reference value :  3.00000e-05
 Reference value :  3.00000e-05
 Reference value :  3.00001e-05
 Reference value :  3.00001e-05
 Reference value :  3.00002e-05
 Reference value :  3.00006e-05
 Reference value :  3.00015e-05
 Reference value :  3.00024e-05
 Reference value :  3.00035e-05
 Reference value :  3.00041e-05
 Reference value :  3.00056e-05
 Reference value :  3.00065e-05
 Reference value :  3.00084e-05
 Reference value :  3.00093e-05
 Reference value :  3.00114e-05
 Reference value :  3.00187e-05
 Reference value :  3.00376e-05
 Reference value :  3.01010e-05
 Reference value :  3.02501e-05
 Reference value :  3.02501e-05
 Reference value :  3.02502e-05
 Reference value :  3.02502e-05
 Reference value :  3.02503e-05
 Reference value :  3.02505e-05
 Reference value :  3.02510e-05
 Reference value :  3.02519e-05
 Reference value :  3.02531e-05
 Reference value :  3.02544e-05
 Reference value :  3.02557e-05
 Reference value :  3.02564e-05
 Reference value :  3.02581e-05
 Reference value :  3.02603e-05
 Reference value :  3.02640e-05
 Reference value :  3.02729e-05
 Reference value :  3.02947e-05
 Reference value :  3.03510e-05
 Reference value :  3.05000e-05
 Reference value :  3.05013e-05
 Reference value :  3.05039e-05
 Reference value :  3.05052e-05
 Reference value :  3.05066e-05
 Reference value :  3.05078e-05
 Reference value :  3.05103e-05
 Reference value :  3.05113e-05
 Reference value :  3.05124e-05
 Reference value :  3.05144e-05
 Reference value :  3.05163e-05
 Reference value :  3.05184e-05
 Reference value :  3.05194e-05
 Reference value :  3.05210e-05
 Reference value :  3.05254e-05
 Reference value :  3.05291e-05
 Reference value :  3.05383e-05
 Reference value :  3.05430e-05
 Reference value :  3.05463e-05
 Reference value :  3.05525e-05
 Reference value :  3.05617e-05
 Reference value :  3.05790e-05
 Reference value :  3.06155e-05
 Reference value :  3.06949e-05
 Reference value :  3.07501e-05
 Reference value :  3.07502e-05
 Reference value :  3.07502e-05
 Reference value :  3.07503e-05
 Reference value :  3.07504e-05
 Reference value :  3.07505e-05
 Reference value :  3.07509e-05
 Reference value :  3.07515e-05
 Reference value :  3.07524e-05
 Reference value :  3.07529e-05
 Reference value :  3.07537e-05
 Reference value :  3.07543e-05
 Reference value :  3.07555e-05
 Reference value :  3.07563e-05
 Reference value :  3.07587e-05
 Reference value :  3.07694e-05
 Reference value :  3.08172e-05
 Reference value :  3.08399e-05
 Reference value :  3.08557e-05
 Reference value :  3.08945e-05
 Reference value :  3.09645e-05
 Reference value :  3.10000e-05
 Reference value :  3.10001e-05
 Reference value :  3.10001e-05
 Reference value :  3.10002e-05
 Reference value :  3.10003e-05
 Reference value :  3.10009e-05
 Reference value :  3.10020e-05
 Reference value :  3.10024e-05
 Reference value :  3.10035e-05
 Reference value :  3.10041e-05
 Reference value :  3.10056e-05
 Reference value :  3.10065e-05
 Reference value :  3.10084e-05
 Reference value :  3.10093e-05
 Reference value :  3.10114e-05
 Reference value :  3.10150e-05
 Reference value :  3.10255e-05
 Reference value :  3.11033e-05
 Reference value :  3.12501e-05
 Reference value :  3.12501e-05
 Reference value :  3.12502e-05
 Reference value :  3.12502e-05
 Reference value :  3.12503e-05
 Reference value :  3.12505e-05
 Reference value :  3.12510e-05
 Reference value :  3.12519e-05
 Reference value :  3.12531e-05
 Reference value :  3.12544e-05
 Reference value :  3.12550e-05
 Reference value :  3.12564e-05
 Reference value :  3.12581e-05
 Reference value :  3.12602e-05
 Reference value :  3.12640e-05
 Reference value :  3.12729e-05
 Reference value :  3.12947e-05
 Reference value :  3.14208e-05
 Reference value :  3.15000e-05
 Reference value :  3.15001e-05
 Reference value :  3.15001e-05
 Reference value :  3.15002e-05
 Reference value :  3.15003e-05
 Reference value :  3.15009e-05
 Reference value :  3.15020e-05
 Reference value :  3.15024e-05
 Reference value :  3.15035e-05
 Reference value :  3.15041e-05
 Reference value :  3.15046e-05
 Reference value :  3.15058e-05
 Reference value :  3.15065e-05
 Reference value :  3.15082e-05
 Reference value :  3.15106e-05
 Reference value :  3.15117e-05
 Reference value :  3.15129e-05
[...]
 Reference value :  6.71250e-04
 Reference value :  6.71250e-04
 Reference value :  6.71251e-04
 Reference value :  6.71252e-04
 Reference value :  6.71253e-04
 Reference value :  6.71253e-04
 Reference value :  6.71255e-04
 Reference value :  6.71256e-04
 Reference value :  6.71259e-04
 Reference value :  6.71263e-04
 Reference value :  6.71297e-04
 Reference value :  6.71410e-04
 Reference value :  6.71500e-04
 Reference value :  6.71500e-04
 Reference value :  6.71500e-04
 Reference value :  6.71500e-04
 Reference value :  6.71500e-04
 Reference value :  6.71500e-04
 Reference value :  6.71500e-04
 Reference value :  6.71500e-04
 Reference value :  6.71500e-04
 Reference value :  6.71501e-04
 Reference value :  6.71502e-04
 Reference value :  6.71503e-04
 Reference value :  6.71504e-04
 Reference value :  6.71505e-04
 Reference value :  6.71506e-04
 Reference value :  6.71506e-04
 Reference value :  6.71508e-04
 Reference value :  6.71519e-04
 Reference value :  6.71524e-04
 Reference value :  6.71529e-04
 Reference value :  6.71532e-04
 Reference value :  6.71534e-04
 Reference value :  6.71536e-04
 Reference value :  6.71538e-04
 Reference value :  6.71541e-04
 Reference value :  6.71543e-04
 Reference value :  6.71546e-04
 Reference value :  6.71552e-04
 Reference value :  6.71559e-04
 Reference value :  6.71578e-04
 Reference value :  6.71606e-04
 Reference value :  6.71648e-04
 Reference value :  6.71724e-04
 Reference value :  6.71750e-04
 Reference value :  6.71750e-04
 Reference value :  6.71750e-04
 Reference value :  6.71750e-04
 Reference value :  6.71751e-04
 Reference value :  6.71751e-04
 Reference value :  6.71752e-04
 Reference value :  6.71753e-04
 Reference value :  6.71753e-04
 Reference value :  6.71754e-04
 Reference value :  6.71755e-04
 Reference value :  6.71756e-04
 Reference value :  6.71758e-04
 Reference value :  6.71767e-04
 Reference value :  6.71826e-04
 Reference value :  6.72000e-04
 Reference value :  6.72000e-04
 Reference value :  6.72000e-04
 Reference value :  6.72000e-04
 Reference value :  6.72000e-04
 Reference value :  6.72001e-04
 Reference value :  6.72001e-04
 Reference value :  6.72002e-04
 Reference value :  6.72003e-04
 Reference value :  6.72005e-04
 Reference value :  6.72006e-04
 Reference value :  6.72008e-04
 Reference value :  6.72010e-04
 Reference value :  6.72011e-04
 Reference value :  6.72012e-04
 Reference value :  6.72014e-04
 Reference value :  6.72017e-04
 Reference value :  6.72023e-04
 Reference value :  6.72035e-04
 Reference value :  6.72071e-04
 Reference value :  6.72151e-04
 Reference value :  6.72186e-04
 Reference value :  6.72205e-04
 Reference value :  6.72223e-04
 Reference value :  6.72232e-04
 Reference value :  6.72250e-04
 Reference value :  6.72250e-04
 Reference value :  6.72250e-04
 Reference value :  6.72250e-04
 Reference value :  6.72250e-04
 Reference value :  6.72251e-04
 Reference value :  6.72252e-04
 Reference value :  6.72253e-04
 Reference value :  6.72254e-04
 Reference value :  6.72254e-04
 Reference value :  6.72255e-04
 Reference value :  6.72256e-04
 Reference value :  6.72257e-04
 Reference value :  6.72259e-04
 Reference value :  6.72261e-04
 Reference value :  6.72271e-04
 Reference value :  6.72293e-04
 Reference value :  6.72349e-04
 Reference value :  6.72500e-04
 Reference value :  6.72500e-04
 Reference value :  6.72500e-04
 Reference value :  6.72500e-04
 Reference value :  6.72501e-04
 Reference value :  6.72501e-04
 Reference value :  6.72502e-04
 Reference value :  6.72503e-04
 Reference value :  6.72505e-04
 Reference value :  6.72506e-04
 Reference value :  6.72507e-04
 Reference value :  6.72509e-04
 Reference value :  6.72510e-04
 Reference value :  6.72512e-04
 Reference value :  6.72513e-04
 Reference value :  6.72515e-04
 Reference value :  6.72517e-04
 Reference value :  6.72518e-04
 Reference value :  6.72521e-04
 Reference value :  6.72527e-04
 Reference value :  6.72542e-04
 Reference value :  6.72568e-04
 Reference value :  6.72579e-04
 Reference value :  6.72587e-04
 Reference value :  6.72600e-04
 Reference value :  6.72616e-04
 Reference value :  6.72659e-04
 Reference value :  6.72750e-04
 Reference value :  6.72750e-04
 Reference value :  6.72750e-04
 Reference value :  6.72750e-04
 Reference value :  6.72750e-04
 Reference value :  6.72751e-04
 Reference value :  6.72751e-04
 Reference value :  6.72752e-04
 Reference value :  6.72753e-04
 Reference value :  6.72753e-04
 Reference value :  6.72754e-04
 Reference value :  6.72755e-04
 Reference value :  6.72756e-04
 Reference value :  6.72758e-04
 Reference value :  6.72768e-04
 Reference value :  6.72827e-04
 Reference value :  6.73000e-04
 Reference value :  6.73002e-04
 Reference value :  6.73006e-04
 Reference value :  6.73008e-04
 Reference value :  6.73012e-04
 Reference value :  6.73016e-04
 Reference value :  6.73029e-04
 Reference value :  6.73049e-04
 Reference value :  6.73153e-04
 Reference value :  6.73250e-04
 Reference value :  6.73250e-04
 Reference value :  6.73250e-04
 Reference value :  6.73250e-04
 Reference value :  6.73250e-04
 Reference value :  6.73251e-04
 Reference value :  6.73251e-04
 Reference value :  6.73252e-04
 Reference value :  6.73253e-04
 Reference value :  6.73254e-04
 Reference value :  6.73255e-04
 Reference value :  6.73256e-04
 Reference value :  6.73258e-04
 Reference value :  6.73263e-04
 Reference value :  6.73293e-04
 Reference value :  6.73500e-04
 Reference value :  6.73500e-04
 Reference value :  6.73500e-04
 Reference value :  6.73500e-04
 Reference value :  6.73500e-04
 Reference value :  6.73501e-04
 Reference value :  6.73501e-04
 Reference value :  6.73502e-04
 Reference value :  6.73503e-04
 Reference value :  6.73503e-04
 Reference value :  6.73504e-04
 Reference value :  6.73506e-04
 Reference value :  6.73507e-04
 Reference value :  6.73510e-04
 Reference value :  6.73513e-04
 Reference value :  6.73514e-04
 Reference value :  6.73516e-04
 Reference value :  6.73517e-04
 Reference value :  6.73519e-04
 Reference value :  6.73522e-04
 Reference value :  6.73530e-04
 Reference value :  6.73538e-04
 Reference value :  6.73577e-04
 Reference value :  6.73670e-04
 Reference value :  6.73750e-04
 Reference value :  6.73750e-04
 Reference value :  6.73750e-04
 Reference value :  6.73750e-04
 Reference value :  6.73750e-04
 Reference value :  6.73751e-04
 Reference value :  6.73752e-04
 Reference value :  6.73752e-04
 Reference value :  6.73754e-04
 Reference value :  6.73754e-04
 Reference value :  6.73755e-04
 Reference value :  6.73756e-04
 Reference value :  6.73758e-04
 Reference value :  6.73763e-04
 Reference value :  6.73794e-04
 Reference value :  6.73890e-04
 Reference value :  6.74002e-04
 Reference value :  6.74006e-04
 Reference value :  6.74008e-04
 Reference value :  6.74012e-04
 Reference value :  6.74014e-04
 Reference value :  6.74022e-04
 Reference value :  6.74033e-04
 Reference value :  6.74082e-04
 Reference value :  6.74250e-04
 Reference value :  6.74250e-04
 Reference value :  6.74250e-04
 Reference value :  6.74250e-04
 Reference value :  6.74250e-04
 Reference value :  6.74251e-04
 Reference value :  6.74251e-04
 Reference value :  6.74252e-04
 Reference value :  6.74253e-04
 Reference value :  6.74253e-04
 Reference value :  6.74254e-04
 Reference value :  6.74255e-04
 Reference value :  6.74256e-04
 Reference value :  6.74258e-04
 Reference value :  6.74267e-04
 Reference value :  6.74292e-04
 Reference value :  6.74500e-04
 Reference value :  6.74500e-04
 Reference value :  6.74500e-04
 Reference value :  6.74500e-04
 Reference value :  6.74500e-04
 Reference value :  6.74501e-04
 Reference value :  6.74501e-04
 Reference value :  6.74502e-04
 Reference value :  6.74503e-04
 Reference value :  6.74504e-04
 Reference value :  6.74506e-04
 Reference value :  6.74507e-04
 Reference value :  6.74510e-04
 Reference value :  6.74511e-04
 Reference value :  6.74513e-04
 Reference value :  6.74514e-04
 Reference value :  6.74516e-04
 Reference value :  6.74517e-04
 Reference value :  6.74519e-04
 Reference value :  6.74522e-04
 Reference value :  6.74538e-04
 Reference value :  6.74574e-04
 Reference value :  6.74597e-04
 Reference value :  6.74659e-04
 Reference value :  6.74714e-04
 Reference value :  6.74750e-04
 Reference value :  6.74750e-04
 Reference value :  6.74750e-04
 Reference value :  6.74750e-04
 Reference value :  6.74751e-04
 Reference value :  6.74751e-04
 Reference value :  6.74752e-04
 Reference value :  6.74753e-04
 Reference value :  6.74754e-04
 Reference value :  6.74755e-04
 Reference value :  6.74756e-04
 Reference value :  6.74757e-04
 Reference value :  6.74760e-04
 Reference value :  6.74768e-04
 Reference value :  6.74827e-04
 Reference value :  6.75000e-04
 Reference value :  6.75000e-04
 Reference value :  6.75000e-04
 Reference value :  6.75000e-04
 Reference value :  6.75000e-04
 Reference value :  6.75001e-04
 Reference value :  6.75001e-04
 Reference value :  6.75002e-04
 Reference value :  6.75003e-04
 Reference value :  6.75003e-04
 Reference value :  6.75005e-04
 Reference value :  6.75005e-04
 Reference value :  6.75007e-04
 Reference value :  6.75008e-04
 Reference value :  6.75009e-04
 Reference value :  6.75011e-04
 Reference value :  6.75015e-04
 Reference value :  6.75034e-04
 Reference value :  6.75086e-04
 Reference value :  6.75250e-04
 Reference value :  6.75250e-04
 Reference value :  6.75250e-04
 Reference value :  6.75250e-04
 Reference value :  6.75250e-04
 Reference value :  6.75251e-04
 Reference value :  6.75251e-04
 Reference value :  6.75252e-04
 Reference value :  6.75254e-04
 Reference value :  6.75254e-04
 Reference value :  6.75255e-04
 Reference value :  6.75256e-04
 Reference value :  6.75258e-04
 Reference value :  6.75263e-04
 Reference value :  6.75277e-04
 Reference value :  6.75323e-04
 Reference value :  6.75500e-04
 Reference value :  6.75502e-04
 Reference value :  6.75506e-04
 Reference value :  6.75508e-04
 Reference value :  6.75510e-04
 Reference value :  6.75512e-04
 Reference value :  6.75514e-04
 Reference value :  6.75515e-04
 Reference value :  6.75518e-04
 Reference value :  6.75521e-04
 Reference value :  6.75527e-04
 Reference value :  6.75532e-04
 Reference value :  6.75543e-04
 Reference value :  6.75550e-04
 Reference value :  6.75554e-04
 Reference value :  6.75564e-04
 Reference value :  6.75576e-04
 Reference value :  6.75589e-04
 Reference value :  6.75639e-04
 Reference value :  6.75750e-04
 Reference value :  6.75750e-04
 Reference value :  6.75750e-04
 Reference value :  6.75750e-04
 Reference value :  6.75750e-04
 Reference value :  6.75750e-04
 Reference value :  6.75751e-04
 Reference value :  6.75751e-04
 Reference value :  6.75752e-04
 Reference value :  6.75754e-04
 Reference value :  6.75754e-04
 Reference value :  6.75755e-04
 Reference value :  6.75756e-04
 Reference value :  6.75758e-04
 Reference value :  6.75763e-04
 Reference value :  6.75790e-04
 Reference value :  6.75935e-04
 Reference value :  6.76000e-04
 Reference value :  6.76000e-04
 Reference value :  6.76000e-04
 Reference value :  6.76000e-04
 Reference value :  6.76000e-04
 Reference value :  6.76001e-04
 Reference value :  6.76002e-04
 Reference value :  6.76002e-04
 Reference value :  6.76003e-04
 Reference value :  6.76005e-04
 Reference value :  6.76006e-04
 Reference value :  6.76006e-04
 Reference value :  6.76008e-04
 Reference value :  6.76009e-04
 Reference value :  6.76011e-04
 Reference value :  6.76019e-04
 Reference value :  6.76058e-04
 Reference value :  6.76182e-04
 Reference value :  6.76250e-04
 Reference value :  6.76250e-04
 Reference value :  6.76250e-04
 Reference value :  6.76250e-04
 Reference value :  6.76250e-04
 Reference value :  6.76251e-04
 Reference value :  6.76251e-04
 Reference value :  6.76252e-04
 Reference value :  6.76253e-04
 Reference value :  6.76254e-04
 Reference value :  6.76256e-04
 Reference value :  6.76256e-04
 Reference value :  6.76258e-04
 Reference value :  6.76260e-04
 Reference value :  6.76264e-04
 Reference value :  6.76279e-04
 Reference value :  6.76310e-04
 Reference value :  6.76500e-04
 Reference value :  6.76502e-04
 Reference value :  6.76505e-04
 Reference value :  6.76506e-04
 Reference value :  6.76509e-04
 Reference value :  6.76510e-04
 Reference value :  6.76513e-04
 Reference value :  6.76514e-04
 Reference value :  6.76516e-04
 Reference value :  6.76518e-04
 Reference value :  6.76521e-04
 Reference value :  6.76525e-04
 Reference value :  6.76529e-04
 Reference value :  6.76531e-04
 Reference value :  6.76535e-04
 Reference value :  6.76542e-04
 Reference value :  6.76553e-04
 Reference value :  6.76569e-04
 Reference value :  6.76629e-04
 Reference value :  6.76750e-04
 Reference value :  6.76750e-04
 Reference value :  6.76750e-04
 Reference value :  6.76750e-04
 Reference value :  6.76750e-04
 Reference value :  6.76751e-04
 Reference value :  6.76751e-04
 Reference value :  6.76751e-04
 Reference value :  6.76752e-04
 Reference value :  6.76754e-04
 Reference value :  6.76754e-04
 Reference value :  6.76755e-04
 Reference value :  6.76756e-04
 Reference value :  6.76759e-04
 Reference value :  6.76769e-04
 Reference value :  6.76795e-04
 Reference value :  6.76970e-04
 Reference value :  6.77000e-04
 Reference value :  6.77000e-04
 Reference value :  6.77000e-04
 Reference value :  6.77000e-04
 Reference value :  6.77001e-04
 Reference value :  6.77001e-04
 Reference value :  6.77002e-04
 Reference value :  6.77004e-04
 Reference value :  6.77004e-04
 Reference value :  6.77005e-04
 Reference value :  6.77006e-04
 Reference value :  6.77006e-04
 Reference value :  6.77008e-04
 Reference value :  6.77010e-04
 Reference value :  6.77011e-04
 Reference value :  6.77015e-04
 Reference value :  6.77043e-04
 Reference value :  6.77250e-04
 Reference value :  6.77250e-04
 Reference value :  6.77250e-04
 Reference value :  6.77250e-04
 Reference value :  6.77250e-04
 Reference value :  6.77251e-04
 Reference value :  6.77251e-04
 Reference value :  6.77252e-04
 Reference value :  6.77254e-04
 Reference value :  6.77254e-04
 Reference value :  6.77256e-04
 Reference value :  6.77256e-04
 Reference value :  6.77259e-04
 Reference value :  6.77271e-04
 Reference value :  6.77305e-04
 Reference value :  6.77500e-04
 Reference value :  6.77500e-04
 Reference value :  6.77500e-04
 Reference value :  6.77500e-04
 Reference value :  6.77500e-04
 Reference value :  6.77501e-04
 Reference value :  6.77501e-04
 Reference value :  6.77502e-04
 Reference value :  6.77503e-04
 Reference value :  6.77505e-04
 Reference value :  6.77506e-04
 Reference value :  6.77507e-04
 Reference value :  6.77510e-04
 Reference value :  6.77512e-04
 Reference value :  6.77513e-04
 Reference value :  6.77514e-04
 Reference value :  6.77516e-04
 Reference value :  6.77517e-04
 Reference value :  6.77520e-04
 Reference value :  6.77525e-04
 Reference value :  6.77537e-04
 Reference value :  6.77555e-04
 Reference value :  6.77587e-04
 Reference value :  6.77690e-04
 Reference value :  6.77750e-04
 Reference value :  6.77750e-04
 Reference value :  6.77750e-04
 Reference value :  6.77750e-04
 Reference value :  6.77750e-04
 Reference value :  6.77751e-04
 Reference value :  6.77751e-04
 Reference value :  6.77752e-04
 Reference value :  6.77753e-04
 Reference value :  6.77754e-04
 Reference value :  6.77754e-04
 Reference value :  6.77756e-04
 Reference value :  6.77756e-04
 Reference value :  6.77759e-04
 Reference value :  6.77770e-04
 Reference value :  6.77803e-04
 Reference value :  6.77929e-04
 Reference value :  6.78001e-04
 Reference value :  6.78004e-04
 Reference value :  6.78005e-04
 Reference value :  6.78006e-04
 Reference value :  6.78007e-04
 Reference value :  6.78009e-04
 Reference value :  6.78012e-04
 Reference value :  6.78016e-04
 Reference value :  6.78046e-04
 Reference value :  6.78135e-04
 Reference value :  6.78250e-04
 Reference value :  6.78250e-04
 Reference value :  6.78250e-04
 Reference value :  6.78250e-04
 Reference value :  6.78250e-04
 Reference value :  6.78250e-04
 Reference value :  6.78251e-04
 Reference value :  6.78251e-04
 Reference value :  6.78252e-04
 Reference value :  6.78253e-04
 Reference value :  6.78254e-04
 Reference value :  6.78254e-04
 Reference value :  6.78255e-04
 Reference value :  6.78257e-04
 Reference value :  6.78259e-04
 Reference value :  6.78274e-04
 Reference value :  6.78367e-04
 Reference value :  6.78500e-04
 Reference value :  6.78500e-04
 Reference value :  6.78500e-04
 Reference value :  6.78500e-04
 Reference value :  6.78500e-04
 Reference value :  6.78501e-04
 Reference value :  6.78502e-04
 Reference value :  6.78502e-04
 Reference value :  6.78503e-04
 Reference value :  6.78505e-04
 Reference value :  6.78506e-04
 Reference value :  6.78507e-04
 Reference value :  6.78510e-04
 Reference value :  6.78512e-04
 Reference value :  6.78513e-04
 Reference value :  6.78514e-04
 Reference value :  6.78515e-04
 Reference value :  6.78518e-04
 Reference value :  6.78520e-04
 Reference value :  6.78525e-04
 Reference value :  6.78535e-04
 Reference value :  6.78557e-04
 Reference value :  6.78571e-04
 Reference value :  6.78599e-04
 Reference value :  6.78627e-04
 Reference value :  6.78706e-04
 Reference value :  6.78750e-04
 Reference value :  6.78750e-04
 Reference value :  6.78750e-04
 Reference value :  6.78750e-04
 Reference value :  6.78750e-04
 Reference value :  6.78751e-04
 Reference value :  6.78751e-04
 Reference value :  6.78752e-04
 Reference value :  6.78754e-04
 Reference value :  6.78754e-04
 Reference value :  6.78755e-04
 Reference value :  6.78756e-04
 Reference value :  6.78759e-04
 Reference value :  6.78771e-04
 Reference value :  6.78846e-04
 Reference value :  6.79000e-04
 Reference value :  6.79000e-04
 Reference value :  6.79000e-04
 Reference value :  6.79000e-04
 Reference value :  6.79000e-04
 Reference value :  6.79001e-04
 Reference value :  6.79002e-04
 Reference value :  6.79002e-04
 Reference value :  6.79003e-04
 Reference value :  6.79005e-04
 Reference value :  6.79006e-04
 Reference value :  6.79006e-04
 Reference value :  6.79008e-04
 Reference value :  6.79009e-04
 Reference value :  6.79011e-04
 Reference value :  6.79019e-04
 Reference value :  6.79059e-04
 Reference value :  6.79185e-04
 Reference value :  6.79250e-04
 Reference value :  6.79250e-04
 Reference value :  6.79250e-04
 Reference value :  6.79250e-04
 Reference value :  6.79250e-04
 Reference value :  6.79251e-04
 Reference value :  6.79251e-04
 Reference value :  6.79252e-04
 Reference value :  6.79254e-04
 Reference value :  6.79254e-04
 Reference value :  6.79256e-04
 Reference value :  6.79256e-04
 Reference value :  6.79258e-04
 Reference value :  6.79260e-04
 Reference value :  6.79264e-04
 Reference value :  6.79273e-04
 Reference value :  6.79295e-04
 Reference value :  6.79422e-04
 Reference value :  6.79501e-04
 Reference value :  6.79504e-04
 Reference value :  6.79505e-04
 Reference value :  6.79506e-04
 Reference value :  6.79508e-04
 Reference value :  6.79510e-04
 Reference value :  6.79511e-04
 Reference value :  6.79512e-04
 Reference value :  6.79515e-04
 Reference value :  6.79519e-04
 Reference value :  6.79525e-04
 Reference value :  6.79531e-04
 Reference value :  6.79538e-04
 Reference value :  6.79550e-04
 Reference value :  6.79571e-04
 Reference value :  6.79631e-04
 Reference value :  6.79750e-04
 Reference value :  6.79750e-04
 Reference value :  6.79750e-04
 Reference value :  6.79750e-04
 Reference value :  6.79751e-04
 Reference value :  6.79751e-04
 Reference value :  6.79752e-04
 Reference value :  6.79753e-04
 Reference value :  6.79755e-04
 Reference value :  6.79756e-04
 Reference value :  6.79759e-04
 Reference value :  6.79764e-04
 Reference value :  6.79789e-04
 Reference value :  6.79900e-04
No. of Data Rows : 97883
ngspice-44 done
