
Note: Compatibility modes selected: hs a


Circuit: ** sch_path: /home/ece/cace/sar-adc-using-sky130-pdk/runs/run_2025-09-12_03-18-18/parameters/sndr/run_0/sndr_enob_fom.sch

option SCALE: Scale is set to 1e-06 for instance and model parameters
option SCALE: Scale is set to 1e-06 for instance and model parameters
option SCALE: Scale is set to 1e-06 for instance and model parameters
option SCALE: Scale is set to 1e-06 for instance and model parameters
Doing analysis at TEMP = 27.000000 and TNOM = 27.000000

Using KLU as Direct Linear Solver
Operating point simulation skipped by 'uic',
  now using transient initial conditions.
 Reference value :  1.00000e-12
 Reference value :  1.02772e-12
 Reference value :  1.08316e-12
 Reference value :  1.19404e-12
 Reference value :  1.33846e-12
 Reference value :  1.62730e-12
 Reference value :  2.20497e-12
 Reference value :  3.04335e-12
 Reference value :  3.94982e-12
 Reference value :  5.16967e-12
 Reference value :  6.91498e-12
 Reference value :  1.00767e-11
 Reference value :  1.37755e-11
 Reference value :  2.04792e-11
 Reference value :  2.74531e-11
 Reference value :  3.63427e-11
 Reference value :  4.73670e-11
 Reference value :  6.40000e-11
 Reference value :  8.44867e-11
 Reference value :  1.00000e-10
 Reference value :  1.01289e-10
 Reference value :  1.03866e-10
 Reference value :  1.09021e-10
 Reference value :  1.19331e-10
 Reference value :  1.39951e-10
 Reference value :  1.81190e-10
 Reference value :  2.63669e-10
 Reference value :  4.15317e-10
 Reference value :  5.83588e-10
 Reference value :  8.54486e-10
 Reference value :  1.22772e-09
 Reference value :  1.75611e-09
 Reference value :  2.54906e-09
 Reference value :  3.30321e-09
 Reference value :  4.35206e-09
 Reference value :  5.34185e-09
 Reference value :  6.32568e-09
 Reference value :  7.62656e-09
 Reference value :  8.92456e-09
 Reference value :  1.01049e-08
 Reference value :  1.09192e-08
 Reference value :  1.17735e-08
 Reference value :  1.27335e-08
 Reference value :  1.37398e-08
 Reference value :  1.57524e-08
 Reference value :  1.87764e-08
 Reference value :  2.28244e-08
 Reference value :  2.72931e-08
 Reference value :  3.10750e-08
 Reference value :  3.50555e-08
 Reference value :  3.89431e-08
 Reference value :  4.29950e-08
 Reference value :  5.10987e-08
 Reference value :  6.69842e-08
 Reference value :  9.11815e-08
 Reference value :  1.39576e-07
 Reference value :  2.01727e-07
 Reference value :  2.50100e-07
 Reference value :  2.50110e-07
 Reference value :  2.50130e-07
 Reference value :  2.50170e-07
 Reference value :  2.50200e-07
 Reference value :  2.50201e-07
 Reference value :  2.50202e-07
 Reference value :  2.50204e-07
 Reference value :  2.50208e-07
 Reference value :  2.50216e-07
 Reference value :  2.50233e-07
 Reference value :  2.50267e-07
 Reference value :  2.50335e-07
 Reference value :  2.50428e-07
 Reference value :  2.50611e-07
 Reference value :  2.50792e-07
 Reference value :  2.51135e-07
 Reference value :  2.51558e-07
 Reference value :  2.52259e-07
 Reference value :  2.52900e-07
 Reference value :  2.53739e-07
 Reference value :  2.54754e-07
 Reference value :  2.55923e-07
 Reference value :  2.57000e-07
 Reference value :  2.58032e-07
 Reference value :  2.59197e-07
 Reference value :  2.60299e-07
 Reference value :  2.62113e-07
 Reference value :  2.64722e-07
 Reference value :  2.67421e-07
 Reference value :  2.72043e-07
 Reference value :  2.78807e-07
 Reference value :  2.92334e-07
 Reference value :  3.19388e-07
 Reference value :  3.70350e-07
 Reference value :  4.72275e-07
 Reference value :  5.00000e-07
 Reference value :  5.00010e-07
 Reference value :  5.00030e-07
 Reference value :  5.00070e-07
 Reference value :  5.00100e-07
 Reference value :  5.00104e-07
 Reference value :  5.00113e-07
 Reference value :  5.00130e-07
 Reference value :  5.00164e-07
 Reference value :  5.00232e-07
 Reference value :  5.00369e-07
 Reference value :  5.00560e-07
 Reference value :  5.00941e-07
 Reference value :  5.01536e-07
 Reference value :  5.02163e-07
 Reference value :  5.02854e-07
 Reference value :  5.03676e-07
 Reference value :  5.04428e-07
 Reference value :  5.05342e-07
 Reference value :  5.06300e-07
 Reference value :  5.07291e-07
 Reference value :  5.08691e-07
 Reference value :  5.10115e-07
 Reference value :  5.12675e-07
 Reference value :  5.15600e-07
 Reference value :  5.17748e-07
 Reference value :  5.20194e-07
 Reference value :  5.22649e-07
 Reference value :  5.25203e-07
 Reference value :  5.28411e-07
 Reference value :  5.33033e-07
 Reference value :  5.39375e-07
 Reference value :  5.48758e-07
 Reference value :  5.67523e-07
 Reference value :  5.94942e-07
 Reference value :  6.46001e-07
 Reference value :  7.44577e-07
 Reference value :  7.50100e-07
 Reference value :  7.50110e-07
 Reference value :  7.50130e-07
 Reference value :  7.50170e-07
 Reference value :  7.50200e-07
 Reference value :  7.50201e-07
 Reference value :  7.50202e-07
 Reference value :  7.50205e-07
 Reference value :  7.50212e-07
 Reference value :  7.50224e-07
 Reference value :  7.50249e-07
 Reference value :  7.50298e-07
 Reference value :  7.50396e-07
 Reference value :  7.50594e-07
 Reference value :  7.50984e-07
 Reference value :  7.51569e-07
 Reference value :  7.52239e-07
 Reference value :  7.52985e-07
 Reference value :  7.53829e-07
 Reference value :  7.54923e-07
 Reference value :  7.55816e-07
 Reference value :  7.56877e-07
 Reference value :  7.57785e-07
 Reference value :  7.58768e-07
 Reference value :  7.59882e-07
 Reference value :  7.61132e-07
 Reference value :  7.63633e-07
 Reference value :  7.66447e-07
 Reference value :  7.70881e-07
 Reference value :  7.76848e-07
 Reference value :  7.88782e-07
 Reference value :  8.12649e-07
 Reference value :  8.60150e-07
 Reference value :  9.55151e-07
 Reference value :  1.00000e-06
 Reference value :  1.00001e-06
 Reference value :  1.00003e-06
 Reference value :  1.00007e-06
 Reference value :  1.00010e-06
 Reference value :  1.00010e-06
 Reference value :  1.00011e-06
 Reference value :  1.00013e-06
 Reference value :  1.00016e-06
 Reference value :  1.00023e-06
 Reference value :  1.00037e-06
 Reference value :  1.00056e-06
 Reference value :  1.00094e-06
 Reference value :  1.00153e-06
 Reference value :  1.00216e-06
 Reference value :  1.00285e-06
 Reference value :  1.00357e-06
 Reference value :  1.00432e-06
 Reference value :  1.00516e-06
 Reference value :  1.00607e-06
 Reference value :  1.00702e-06
 Reference value :  1.00795e-06
 Reference value :  1.00904e-06
 Reference value :  1.01001e-06
 Reference value :  1.01108e-06
 Reference value :  1.01259e-06
 Reference value :  1.01427e-06
 Reference value :  1.01717e-06
 Reference value :  1.02013e-06
 Reference value :  1.02249e-06
 Reference value :  1.02462e-06
 Reference value :  1.02615e-06
 Reference value :  1.02771e-06
 Reference value :  1.02917e-06
 Reference value :  1.03074e-06
 Reference value :  1.03251e-06
 Reference value :  1.03500e-06
 Reference value :  1.03757e-06
 Reference value :  1.04224e-06
 Reference value :  1.04907e-06
 Reference value :  1.05961e-06
 Reference value :  1.07738e-06
 Reference value :  1.10517e-06
 Reference value :  1.14496e-06
 Reference value :  1.19067e-06
 Reference value :  1.23603e-06
 Reference value :  1.25010e-06
 Reference value :  1.25011e-06
 Reference value :  1.25013e-06
 Reference value :  1.25017e-06
 Reference value :  1.25020e-06
 Reference value :  1.25020e-06
 Reference value :  1.25020e-06
 Reference value :  1.25021e-06
 Reference value :  1.25021e-06
 Reference value :  1.25022e-06
 Reference value :  1.25025e-06
 Reference value :  1.25030e-06
 Reference value :  1.25039e-06
 Reference value :  1.25059e-06
 Reference value :  1.25092e-06
 Reference value :  1.25155e-06
 Reference value :  1.25216e-06
 Reference value :  1.25295e-06
 Reference value :  1.25376e-06
 Reference value :  1.25484e-06
 Reference value :  1.25572e-06
 Reference value :  1.25675e-06
 Reference value :  1.25773e-06
 Reference value :  1.25875e-06
 Reference value :  1.26047e-06
 Reference value :  1.26209e-06
 Reference value :  1.26496e-06
 Reference value :  1.26809e-06
 Reference value :  1.27241e-06
 Reference value :  1.27730e-06
 Reference value :  1.28709e-06
 Reference value :  1.30666e-06
 Reference value :  1.34395e-06
 Reference value :  1.41855e-06
 Reference value :  1.50000e-06
 Reference value :  1.50001e-06
 Reference value :  1.50003e-06
 Reference value :  1.50007e-06
 Reference value :  1.50010e-06
 Reference value :  1.50010e-06
 Reference value :  1.50011e-06
 Reference value :  1.50013e-06
 Reference value :  1.50016e-06
 Reference value :  1.50023e-06
 Reference value :  1.50037e-06
 Reference value :  1.50055e-06
 Reference value :  1.50092e-06
 Reference value :  1.50160e-06
 Reference value :  1.50223e-06
 Reference value :  1.50286e-06
 Reference value :  1.50358e-06
 Reference value :  1.50432e-06
 Reference value :  1.50516e-06
 Reference value :  1.50607e-06
 Reference value :  1.50711e-06
 Reference value :  1.50846e-06
 Reference value :  1.50983e-06
 Reference value :  1.51140e-06
 Reference value :  1.51280e-06
 Reference value :  1.51427e-06
 Reference value :  1.51633e-06
 Reference value :  1.51823e-06
 Reference value :  1.52026e-06
 Reference value :  1.52330e-06
 Reference value :  1.52625e-06
 Reference value :  1.53177e-06
 Reference value :  1.53933e-06
 Reference value :  1.55187e-06
 Reference value :  1.57378e-06
 Reference value :  1.60908e-06
 Reference value :  1.67432e-06
 Reference value :  1.75010e-06
 Reference value :  1.75011e-06
 Reference value :  1.75013e-06
 Reference value :  1.75017e-06
 Reference value :  1.75020e-06
 Reference value :  1.75020e-06
 Reference value :  1.75020e-06
 Reference value :  1.75021e-06
 Reference value :  1.75021e-06
 Reference value :  1.75022e-06
 Reference value :  1.75025e-06
 Reference value :  1.75030e-06
 Reference value :  1.75040e-06
 Reference value :  1.75059e-06
 Reference value :  1.75094e-06
 Reference value :  1.75155e-06
 Reference value :  1.75218e-06
 Reference value :  1.75295e-06
 Reference value :  1.75378e-06
 Reference value :  1.75485e-06
 Reference value :  1.75576e-06
 Reference value :  1.75682e-06
 Reference value :  1.75775e-06
 Reference value :  1.75873e-06
 Reference value :  1.75987e-06
 Reference value :  1.76115e-06
 Reference value :  1.76245e-06
 Reference value :  1.76424e-06
 Reference value :  1.76646e-06
 Reference value :  1.76922e-06
 Reference value :  1.77289e-06
 Reference value :  1.77805e-06
 Reference value :  1.78836e-06
 Reference value :  1.80598e-06
 Reference value :  1.84123e-06
 Reference value :  1.91174e-06
 Reference value :  2.00000e-06
 Reference value :  2.00001e-06
 Reference value :  2.00003e-06
 Reference value :  2.00007e-06
 Reference value :  2.00010e-06
 Reference value :  2.00010e-06
 Reference value :  2.00011e-06
 Reference value :  2.00013e-06
 Reference value :  2.00016e-06
 Reference value :  2.00023e-06
 Reference value :  2.00037e-06
 Reference value :  2.00055e-06
 Reference value :  2.00092e-06
 Reference value :  2.00160e-06
 Reference value :  2.00223e-06
 Reference value :  2.00291e-06
 Reference value :  2.00363e-06
 Reference value :  2.00438e-06
 Reference value :  2.00522e-06
 Reference value :  2.00613e-06
 Reference value :  2.00697e-06
 Reference value :  2.00785e-06
 Reference value :  2.00875e-06
 Reference value :  2.00971e-06
 Reference value :  2.01060e-06
 Reference value :  2.01185e-06
 Reference value :  2.01314e-06
 Reference value :  2.01539e-06
 Reference value :  2.01787e-06
 Reference value :  2.01971e-06
 Reference value :  2.02176e-06
 Reference value :  2.02372e-06
 Reference value :  2.02521e-06
 Reference value :  2.02661e-06
 Reference value :  2.02809e-06
 Reference value :  2.02967e-06
 Reference value :  2.03147e-06
 Reference value :  2.03332e-06
 Reference value :  2.03647e-06
 Reference value :  2.03945e-06
 Reference value :  2.04541e-06
 Reference value :  2.05734e-06
 Reference value :  2.07535e-06
 Reference value :  2.09709e-06
 Reference value :  2.11809e-06
 Reference value :  2.13357e-06
 Reference value :  2.14401e-06
 Reference value :  2.15131e-06
 Reference value :  2.15940e-06
 Reference value :  2.17267e-06
 Reference value :  2.18655e-06
 Reference value :  2.20704e-06
 Reference value :  2.23674e-06
 Reference value :  2.25010e-06
 Reference value :  2.25011e-06
 Reference value :  2.25013e-06
 Reference value :  2.25017e-06
 Reference value :  2.25020e-06
 Reference value :  2.25020e-06
 Reference value :  2.25020e-06
 Reference value :  2.25021e-06
 Reference value :  2.25021e-06
 Reference value :  2.25022e-06
 Reference value :  2.25025e-06
 Reference value :  2.25030e-06
 Reference value :  2.25040e-06
 Reference value :  2.25059e-06
 Reference value :  2.25094e-06
 Reference value :  2.25155e-06
 Reference value :  2.25218e-06
 Reference value :  2.25295e-06
 Reference value :  2.25377e-06
 Reference value :  2.25484e-06
 Reference value :  2.25579e-06
 Reference value :  2.25687e-06
 Reference value :  2.25798e-06
 Reference value :  2.25904e-06
 Reference value :  2.26085e-06
 Reference value :  2.26259e-06
 Reference value :  2.26541e-06
 Reference value :  2.26895e-06
 Reference value :  2.27427e-06
 Reference value :  2.28491e-06
 Reference value :  2.30346e-06
 Reference value :  2.33731e-06
 Reference value :  2.40502e-06
 Reference value :  2.46923e-06
 Reference value :  2.50000e-06
 Reference value :  2.50001e-06
 Reference value :  2.50003e-06
 Reference value :  2.50007e-06
 Reference value :  2.50010e-06
 Reference value :  2.50010e-06
 Reference value :  2.50011e-06
 Reference value :  2.50013e-06
 Reference value :  2.50016e-06
 Reference value :  2.50023e-06
 Reference value :  2.50037e-06
 Reference value :  2.50055e-06
 Reference value :  2.50092e-06
 Reference value :  2.50160e-06
 Reference value :  2.50223e-06
 Reference value :  2.50291e-06
 Reference value :  2.50363e-06
 Reference value :  2.50438e-06
 Reference value :  2.50524e-06
 Reference value :  2.50616e-06
 Reference value :  2.50719e-06
 Reference value :  2.50853e-06
 Reference value :  2.50991e-06
 Reference value :  2.51147e-06
 Reference value :  2.51303e-06
 Reference value :  2.51463e-06
 Reference value :  2.51656e-06
 Reference value :  2.51830e-06
 Reference value :  2.52026e-06
 Reference value :  2.52237e-06
 Reference value :  2.52661e-06
 Reference value :  2.53479e-06
 Reference value :  2.54850e-06
 Reference value :  2.57593e-06
 Reference value :  2.63079e-06
 Reference value :  2.74052e-06
 Reference value :  2.75010e-06
 Reference value :  2.75011e-06
 Reference value :  2.75013e-06
 Reference value :  2.75017e-06
 Reference value :  2.75020e-06
 Reference value :  2.75020e-06
 Reference value :  2.75020e-06
 Reference value :  2.75021e-06
 Reference value :  2.75021e-06
 Reference value :  2.75022e-06
 Reference value :  2.75025e-06
 Reference value :  2.75030e-06
 Reference value :  2.75039e-06
 Reference value :  2.75059e-06
 Reference value :  2.75093e-06
 Reference value :  2.75154e-06
 Reference value :  2.75216e-06
 Reference value :  2.75294e-06
 Reference value :  2.75375e-06
 Reference value :  2.75482e-06
 Reference value :  2.75575e-06
 Reference value :  2.75683e-06
 Reference value :  2.75777e-06
 Reference value :  2.75877e-06
 Reference value :  2.75990e-06
 Reference value :  2.76118e-06
 Reference value :  2.76373e-06
 Reference value :  2.76655e-06
 Reference value :  2.77107e-06
 Reference value :  2.77719e-06
 Reference value :  2.78942e-06
 Reference value :  2.81388e-06
 Reference value :  2.86281e-06
 Reference value :  2.96066e-06
 Reference value :  3.00000e-06
 Reference value :  3.00001e-06
 Reference value :  3.00003e-06
 Reference value :  3.00007e-06
 Reference value :  3.00010e-06
 Reference value :  3.00010e-06
 Reference value :  3.00011e-06
 Reference value :  3.00013e-06
 Reference value :  3.00016e-06
 Reference value :  3.00023e-06
 Reference value :  3.00037e-06
 Reference value :  3.00055e-06
 Reference value :  3.00092e-06
 Reference value :  3.00160e-06
 Reference value :  3.00223e-06
 Reference value :  3.00291e-06
 Reference value :  3.00363e-06
 Reference value :  3.00439e-06
 Reference value :  3.00523e-06
 Reference value :  3.00615e-06
 Reference value :  3.00710e-06
 Reference value :  3.00812e-06
 Reference value :  3.00918e-06
 Reference value :  3.01020e-06
 Reference value :  3.01129e-06
 Reference value :  3.01274e-06
 Reference value :  3.01454e-06
 Reference value :  3.01749e-06
 Reference value :  3.02028e-06
 Reference value :  3.02266e-06
 Reference value :  3.02457e-06
 Reference value :  3.02637e-06
 Reference value :  3.02839e-06
 Reference value :  3.03027e-06
 Reference value :  3.03255e-06
 Reference value :  3.03486e-06
 Reference value :  3.03825e-06
 Reference value :  3.04233e-06
 Reference value :  3.05010e-06
 Reference value :  3.06240e-06
 Reference value :  3.08135e-06
 Reference value :  3.09815e-06
 Reference value :  3.11502e-06
 Reference value :  3.12726e-06
 Reference value :  3.13725e-06
 Reference value :  3.14701e-06
 Reference value :  3.15393e-06
 Reference value :  3.16230e-06
 Reference value :  3.17779e-06
 Reference value :  3.19353e-06
 Reference value :  3.22052e-06
 Reference value :  3.25010e-06
 Reference value :  3.25011e-06
 Reference value :  3.25013e-06
 Reference value :  3.25017e-06
 Reference value :  3.25020e-06
 Reference value :  3.25020e-06
 Reference value :  3.25020e-06
 Reference value :  3.25021e-06
 Reference value :  3.25021e-06
 Reference value :  3.25022e-06
 Reference value :  3.25025e-06
 Reference value :  3.25030e-06
 Reference value :  3.25040e-06
 Reference value :  3.25059e-06
 Reference value :  3.25094e-06
 Reference value :  3.25155e-06
 Reference value :  3.25218e-06
 Reference value :  3.25295e-06
 Reference value :  3.25377e-06
 Reference value :  3.25483e-06
 Reference value :  3.25570e-06
 Reference value :  3.25672e-06
 Reference value :  3.25769e-06
 Reference value :  3.25871e-06
 Reference value :  3.26042e-06
 Reference value :  3.26201e-06
 Reference value :  3.26485e-06
 Reference value :  3.26795e-06
 Reference value :  3.27298e-06
 Reference value :  3.28205e-06
 Reference value :  3.30017e-06
 Reference value :  3.33617e-06
 Reference value :  3.40818e-06
 Reference value :  3.50000e-06
 Reference value :  3.50001e-06
 Reference value :  3.50003e-06
 Reference value :  3.50007e-06
 Reference value :  3.50010e-06
 Reference value :  3.50010e-06
 Reference value :  3.50011e-06
 Reference value :  3.50013e-06
 Reference value :  3.50016e-06
 Reference value :  3.50023e-06
 Reference value :  3.50037e-06
 Reference value :  3.50056e-06
 Reference value :  3.50093e-06
 Reference value :  3.50161e-06
 Reference value :  3.50223e-06
 Reference value :  3.50286e-06
 Reference value :  3.50357e-06
 Reference value :  3.50431e-06
 Reference value :  3.50516e-06
 Reference value :  3.50606e-06
 Reference value :  3.50701e-06
 Reference value :  3.50838e-06
 Reference value :  3.50964e-06
 Reference value :  3.51121e-06
 Reference value :  3.51251e-06
 Reference value :  3.51391e-06
 Reference value :  3.51569e-06
 Reference value :  3.51758e-06
 Reference value :  3.51943e-06
 Reference value :  3.52228e-06
 Reference value :  3.52500e-06
 Reference value :  3.53010e-06
 Reference value :  3.53730e-06
 Reference value :  3.54923e-06
 Reference value :  3.57075e-06
 Reference value :  3.60597e-06
 Reference value :  3.66233e-06
 Reference value :  3.72457e-06
 Reference value :  3.75010e-06
 Reference value :  3.75011e-06
 Reference value :  3.75013e-06
 Reference value :  3.75017e-06
 Reference value :  3.75020e-06
 Reference value :  3.75020e-06
 Reference value :  3.75020e-06
 Reference value :  3.75021e-06
 Reference value :  3.75021e-06
 Reference value :  3.75022e-06
 Reference value :  3.75025e-06
 Reference value :  3.75030e-06
 Reference value :  3.75039e-06
 Reference value :  3.75059e-06
 Reference value :  3.75093e-06
 Reference value :  3.75154e-06
 Reference value :  3.75216e-06
 Reference value :  3.75294e-06
 Reference value :  3.75375e-06
 Reference value :  3.75482e-06
 Reference value :  3.75574e-06
 Reference value :  3.75680e-06
 Reference value :  3.75774e-06
 Reference value :  3.75873e-06
 Reference value :  3.75986e-06
 Reference value :  3.76113e-06
 Reference value :  3.76240e-06
 Reference value :  3.76419e-06
 Reference value :  3.76637e-06
 Reference value :  3.76912e-06
 Reference value :  3.77274e-06
 Reference value :  3.77785e-06
 Reference value :  3.78807e-06
 Reference value :  3.80445e-06
 Reference value :  3.82200e-06
 Reference value :  3.83534e-06
 Reference value :  3.84374e-06
 Reference value :  3.85347e-06
 Reference value :  3.86190e-06
 Reference value :  3.87064e-06
 Reference value :  3.88290e-06
 Reference value :  3.89634e-06
 Reference value :  3.91608e-06
 Reference value :  3.94207e-06
 Reference value :  3.96770e-06
 Reference value :  4.00000e-06
 Reference value :  4.00001e-06
 Reference value :  4.00003e-06
 Reference value :  4.00007e-06
 Reference value :  4.00010e-06
 Reference value :  4.00010e-06
 Reference value :  4.00011e-06
 Reference value :  4.00013e-06
 Reference value :  4.00016e-06
 Reference value :  4.00023e-06
 Reference value :  4.00037e-06
 Reference value :  4.00056e-06
 Reference value :  4.00093e-06
 Reference value :  4.00161e-06
 Reference value :  4.00223e-06
 Reference value :  4.00291e-06
 Reference value :  4.00362e-06
 Reference value :  4.00438e-06
 Reference value :  4.00522e-06
 Reference value :  4.00614e-06
 Reference value :  4.00716e-06
 Reference value :  4.00816e-06
 Reference value :  4.00912e-06
 Reference value :  4.01012e-06
 Reference value :  4.01117e-06
 Reference value :  4.01254e-06
 Reference value :  4.01440e-06
 Reference value :  4.01725e-06
 Reference value :  4.02016e-06
 Reference value :  4.02253e-06
 Reference value :  4.02446e-06
 Reference value :  4.02627e-06
 Reference value :  4.02827e-06
 Reference value :  4.03017e-06
 Reference value :  4.03233e-06
 Reference value :  4.03469e-06
 Reference value :  4.03804e-06
 Reference value :  4.04193e-06
 Reference value :  4.04655e-06
 Reference value :  4.05174e-06
 Reference value :  4.05567e-06
 Reference value :  4.05947e-06
 Reference value :  4.06336e-06
 Reference value :  4.06792e-06
 Reference value :  4.07484e-06
 Reference value :  4.08170e-06
 Reference value :  4.08822e-06
 Reference value :  4.09638e-06
 Reference value :  4.10755e-06
 Reference value :  4.12827e-06
 Reference value :  4.15868e-06
 Reference value :  4.18961e-06
 Reference value :  4.23215e-06
 Reference value :  4.25010e-06
 Reference value :  4.25011e-06
 Reference value :  4.25013e-06
 Reference value :  4.25017e-06
 Reference value :  4.25020e-06
 Reference value :  4.25020e-06
 Reference value :  4.25020e-06
 Reference value :  4.25021e-06
 Reference value :  4.25021e-06
 Reference value :  4.25022e-06
 Reference value :  4.25025e-06
 Reference value :  4.25030e-06
 Reference value :  4.25040e-06
 Reference value :  4.25059e-06
 Reference value :  4.25094e-06
 Reference value :  4.25154e-06
 Reference value :  4.25218e-06
 Reference value :  4.25294e-06
 Reference value :  4.25376e-06
 Reference value :  4.25483e-06
 Reference value :  4.25570e-06
 Reference value :  4.25672e-06
 Reference value :  4.25769e-06
 Reference value :  4.25871e-06
 Reference value :  4.26042e-06
 Reference value :  4.26201e-06
 Reference value :  4.26486e-06
 Reference value :  4.26794e-06
 Reference value :  4.27299e-06
 Reference value :  4.28170e-06
 Reference value :  4.29912e-06
 Reference value :  4.33397e-06
 Reference value :  4.40365e-06
 Reference value :  4.50000e-06
 Reference value :  4.50001e-06
 Reference value :  4.50003e-06
 Reference value :  4.50007e-06
 Reference value :  4.50010e-06
 Reference value :  4.50010e-06
 Reference value :  4.50011e-06
 Reference value :  4.50013e-06
 Reference value :  4.50016e-06
 Reference value :  4.50023e-06
 Reference value :  4.50037e-06
 Reference value :  4.50056e-06
 Reference value :  4.50092e-06
 Reference value :  4.50161e-06
 Reference value :  4.50223e-06
 Reference value :  4.50286e-06
 Reference value :  4.50357e-06
 Reference value :  4.50431e-06
 Reference value :  4.50516e-06
 Reference value :  4.50606e-06
 Reference value :  4.50702e-06
 Reference value :  4.50838e-06
 Reference value :  4.50965e-06
 Reference value :  4.51115e-06
 Reference value :  4.51248e-06
 Reference value :  4.51389e-06
 Reference value :  4.51531e-06
 Reference value :  4.51699e-06
 Reference value :  4.51879e-06
 Reference value :  4.52066e-06
 Reference value :  4.52439e-06
 Reference value :  4.53187e-06
 Reference value :  4.54489e-06
 Reference value :  4.57093e-06
 Reference value :  4.62301e-06
 Reference value :  4.72719e-06
 Reference value :  4.75010e-06
 Reference value :  4.75011e-06
 Reference value :  4.75013e-06
 Reference value :  4.75017e-06
 Reference value :  4.75020e-06
 Reference value :  4.75020e-06
 Reference value :  4.75020e-06
 Reference value :  4.75021e-06
 Reference value :  4.75021e-06
 Reference value :  4.75022e-06
 Reference value :  4.75025e-06
 Reference value :  4.75030e-06
 Reference value :  4.75039e-06
 Reference value :  4.75059e-06
 Reference value :  4.75092e-06
 Reference value :  4.75154e-06
 Reference value :  4.75216e-06
 Reference value :  4.75294e-06
 Reference value :  4.75375e-06
 Reference value :  4.75481e-06
 Reference value :  4.75573e-06
 Reference value :  4.75680e-06
 Reference value :  4.75774e-06
 Reference value :  4.75874e-06
 Reference value :  4.75987e-06
 Reference value :  4.76114e-06
 Reference value :  4.76240e-06
 Reference value :  4.76420e-06
 Reference value :  4.76637e-06
 Reference value :  4.76913e-06
 Reference value :  4.77273e-06
 Reference value :  4.77784e-06
 Reference value :  4.78806e-06
 Reference value :  4.80424e-06
 Reference value :  4.83660e-06
 Reference value :  4.90131e-06
 Reference value :  5.00000e-06
 Reference value :  5.00001e-06
 Reference value :  5.00003e-06
 Reference value :  5.00007e-06
 Reference value :  5.00010e-06
 Reference value :  5.00010e-06
 Reference value :  5.00011e-06
 Reference value :  5.00013e-06
 Reference value :  5.00016e-06
 Reference value :  5.00023e-06
 Reference value :  5.00037e-06
 Reference value :  5.00055e-06
 Reference value :  5.00092e-06
 Reference value :  5.00160e-06
 Reference value :  5.00223e-06
 Reference value :  5.00291e-06
 Reference value :  5.00363e-06
 Reference value :  5.00440e-06
 Reference value :  5.00524e-06
 Reference value :  5.00615e-06
 Reference value :  5.00702e-06
 Reference value :  5.00792e-06
 Reference value :  5.00885e-06
 Reference value :  5.00984e-06
 Reference value :  5.01084e-06
 Reference value :  5.01222e-06
 Reference value :  5.01391e-06
 Reference value :  5.01542e-06
 Reference value :  5.01707e-06
 Reference value :  5.01875e-06
 Reference value :  5.02054e-06
 Reference value :  5.02231e-06
 Reference value :  5.02369e-06
 Reference value :  5.02503e-06
 Reference value :  5.02672e-06
 Reference value :  5.02835e-06
 Reference value :  5.02989e-06
 Reference value :  5.03195e-06
 Reference value :  5.03396e-06
 Reference value :  5.03688e-06
 Reference value :  5.04068e-06
 Reference value :  5.04774e-06
 Reference value :  5.05933e-06
 Reference value :  5.07251e-06
 Reference value :  5.08371e-06
 Reference value :  5.09565e-06
 Reference value :  5.10608e-06
 Reference value :  5.11487e-06
 Reference value :  5.12474e-06
 Reference value :  5.13397e-06
 Reference value :  5.14493e-06
 Reference value :  5.16323e-06
 Reference value :  5.19180e-06
 Reference value :  5.23535e-06
 Reference value :  5.25010e-06
 Reference value :  5.25011e-06
 Reference value :  5.25013e-06
 Reference value :  5.25017e-06
 Reference value :  5.25020e-06
 Reference value :  5.25020e-06
 Reference value :  5.25020e-06
 Reference value :  5.25021e-06
 Reference value :  5.25021e-06
 Reference value :  5.25022e-06
 Reference value :  5.25025e-06
 Reference value :  5.25030e-06
 Reference value :  5.25039e-06
 Reference value :  5.25059e-06
 Reference value :  5.25093e-06
 Reference value :  5.25154e-06
 Reference value :  5.25216e-06
 Reference value :  5.25294e-06
 Reference value :  5.25375e-06
 Reference value :  5.25481e-06
 Reference value :  5.25576e-06
 Reference value :  5.25683e-06
 Reference value :  5.25793e-06
 Reference value :  5.25898e-06
 Reference value :  5.26077e-06
 Reference value :  5.26250e-06
 Reference value :  5.26530e-06
 Reference value :  5.26879e-06
 Reference value :  5.27400e-06
 Reference value :  5.28442e-06
 Reference value :  5.30303e-06
 Reference value :  5.33681e-06
 Reference value :  5.40439e-06
 Reference value :  5.50000e-06
 Reference value :  5.50001e-06
 Reference value :  5.50003e-06
 Reference value :  5.50007e-06
 Reference value :  5.50010e-06
 Reference value :  5.50010e-06
 Reference value :  5.50011e-06
 Reference value :  5.50013e-06
 Reference value :  5.50016e-06
 Reference value :  5.50023e-06
 Reference value :  5.50037e-06
 Reference value :  5.50056e-06
 Reference value :  5.50093e-06
 Reference value :  5.50161e-06
 Reference value :  5.50223e-06
 Reference value :  5.50286e-06
 Reference value :  5.50357e-06
 Reference value :  5.50431e-06
 Reference value :  5.50516e-06
 Reference value :  5.50606e-06
 Reference value :  5.50711e-06
 Reference value :  5.50845e-06
 Reference value :  5.50982e-06
 Reference value :  5.51138e-06
 Reference value :  5.51291e-06
 Reference value :  5.51447e-06
 Reference value :  5.51595e-06
 Reference value :  5.51754e-06
 Reference value :  5.51924e-06
 Reference value :  5.52118e-06
 Reference value :  5.52493e-06
 Reference value :  5.53039e-06
 Reference value :  5.54132e-06
 Reference value :  5.56317e-06
 Reference value :  5.60457e-06
 Reference value :  5.68737e-06
 Reference value :  5.75010e-06
 Reference value :  5.75011e-06
 Reference value :  5.75013e-06
 Reference value :  5.75017e-06
 Reference value :  5.75020e-06
 Reference value :  5.75020e-06
 Reference value :  5.75020e-06
 Reference value :  5.75021e-06
 Reference value :  5.75021e-06
 Reference value :  5.75022e-06
 Reference value :  5.75025e-06
 Reference value :  5.75030e-06
 Reference value :  5.75039e-06
 Reference value :  5.75059e-06
 Reference value :  5.75093e-06
 Reference value :  5.75154e-06
 Reference value :  5.75216e-06
 Reference value :  5.75294e-06
 Reference value :  5.75375e-06
 Reference value :  5.75481e-06
 Reference value :  5.75575e-06
 Reference value :  5.75683e-06
 Reference value :  5.75778e-06
 Reference value :  5.75878e-06
 Reference value :  5.75992e-06
 Reference value :  5.76120e-06
 Reference value :  5.76256e-06
 Reference value :  5.76429e-06
 Reference value :  5.76675e-06
 Reference value :  5.76951e-06
 Reference value :  5.77341e-06
 Reference value :  5.77876e-06
 Reference value :  5.78948e-06
 Reference value :  5.81090e-06
 Reference value :  5.85375e-06
 Reference value :  5.93945e-06
 Reference value :  6.00000e-06
 Reference value :  6.00001e-06
 Reference value :  6.00003e-06
 Reference value :  6.00007e-06
 Reference value :  6.00010e-06
 Reference value :  6.00010e-06
 Reference value :  6.00011e-06
 Reference value :  6.00013e-06
 Reference value :  6.00016e-06
 Reference value :  6.00023e-06
 Reference value :  6.00037e-06
 Reference value :  6.00055e-06
 Reference value :  6.00092e-06
 Reference value :  6.00160e-06
 Reference value :  6.00223e-06
 Reference value :  6.00291e-06
 Reference value :  6.00363e-06
 Reference value :  6.00438e-06
 Reference value :  6.00523e-06
 Reference value :  6.00613e-06
 Reference value :  6.00708e-06
 Reference value :  6.00794e-06
 Reference value :  6.00880e-06
 Reference value :  6.00981e-06
 Reference value :  6.01077e-06
 Reference value :  6.01209e-06
 Reference value :  6.01392e-06
 Reference value :  6.01570e-06
 Reference value :  6.01751e-06
 Reference value :  6.01955e-06
 Reference value :  6.02145e-06
 Reference value :  6.02334e-06
 Reference value :  6.02473e-06
 Reference value :  6.02600e-06
 Reference value :  6.02738e-06
 Reference value :  6.02876e-06
 Reference value :  6.03019e-06
 Reference value :  6.03182e-06
 Reference value :  6.03405e-06
 Reference value :  6.03659e-06
 Reference value :  6.04056e-06
 Reference value :  6.04764e-06
 Reference value :  6.05514e-06
 Reference value :  6.06305e-06
 Reference value :  6.07205e-06
 Reference value :  6.08521e-06
 Reference value :  6.10127e-06
 Reference value :  6.11456e-06
 Reference value :  6.13238e-06
 Reference value :  6.15184e-06
 Reference value :  6.17005e-06
 Reference value :  6.20040e-06
 Reference value :  6.25010e-06
 Reference value :  6.25011e-06
 Reference value :  6.25013e-06
 Reference value :  6.25017e-06
 Reference value :  6.25020e-06
 Reference value :  6.25020e-06
 Reference value :  6.25020e-06
 Reference value :  6.25021e-06
 Reference value :  6.25021e-06
 Reference value :  6.25022e-06
 Reference value :  6.25025e-06
 Reference value :  6.25030e-06
 Reference value :  6.25039e-06
 Reference value :  6.25059e-06
 Reference value :  6.25093e-06
 Reference value :  6.25154e-06
 Reference value :  6.25216e-06
 Reference value :  6.25294e-06
 Reference value :  6.25375e-06
 Reference value :  6.25481e-06
 Reference value :  6.25575e-06
 Reference value :  6.25682e-06
 Reference value :  6.25792e-06
 Reference value :  6.25897e-06
 Reference value :  6.26076e-06
 Reference value :  6.26248e-06
 Reference value :  6.26529e-06
 Reference value :  6.26876e-06
 Reference value :  6.27396e-06
 Reference value :  6.28437e-06
 Reference value :  6.30293e-06
 Reference value :  6.33665e-06
 Reference value :  6.40411e-06
 Reference value :  6.50000e-06
 Reference value :  6.50001e-06
 Reference value :  6.50003e-06
 Reference value :  6.50007e-06
 Reference value :  6.50010e-06
 Reference value :  6.50010e-06
 Reference value :  6.50011e-06
 Reference value :  6.50013e-06
 Reference value :  6.50016e-06
 Reference value :  6.50023e-06
 Reference value :  6.50037e-06
 Reference value :  6.50056e-06
 Reference value :  6.50093e-06
 Reference value :  6.50161e-06
 Reference value :  6.50223e-06
 Reference value :  6.50286e-06
 Reference value :  6.50357e-06
 Reference value :  6.50431e-06
 Reference value :  6.50516e-06
 Reference value :  6.50606e-06
 Reference value :  6.50702e-06
 Reference value :  6.50838e-06
 Reference value :  6.50965e-06
 Reference value :  6.51122e-06
 Reference value :  6.51252e-06
 Reference value :  6.51392e-06
 Reference value :  6.51526e-06
 Reference value :  6.51687e-06
 Reference value :  6.51854e-06
 Reference value :  6.52034e-06
 Reference value :  6.52393e-06
 Reference value :  6.53112e-06
 Reference value :  6.54426e-06
 Reference value :  6.57054e-06
 Reference value :  6.62310e-06
 Reference value :  6.72821e-06
 Reference value :  6.75010e-06
 Reference value :  6.75011e-06
 Reference value :  6.75013e-06
 Reference value :  6.75017e-06
 Reference value :  6.75020e-06
 Reference value :  6.75020e-06
 Reference value :  6.75020e-06
 Reference value :  6.75021e-06
 Reference value :  6.75021e-06
 Reference value :  6.75022e-06
 Reference value :  6.75025e-06
 Reference value :  6.75030e-06
 Reference value :  6.75039e-06
 Reference value :  6.75059e-06
 Reference value :  6.75093e-06
 Reference value :  6.75154e-06
 Reference value :  6.75216e-06
 Reference value :  6.75294e-06
 Reference value :  6.75375e-06
 Reference value :  6.75481e-06
 Reference value :  6.75574e-06
 Reference value :  6.75682e-06
 Reference value :  6.75777e-06
 Reference value :  6.75877e-06
 Reference value :  6.75991e-06
 Reference value :  6.76119e-06
 Reference value :  6.76253e-06
 Reference value :  6.76427e-06
 Reference value :  6.76669e-06
 Reference value :  6.76945e-06
 Reference value :  6.77329e-06
 Reference value :  6.77860e-06
 Reference value :  6.78923e-06
 Reference value :  6.81049e-06
 Reference value :  6.85301e-06
 Reference value :  6.93804e-06
 Reference value :  7.00000e-06
 Reference value :  7.00001e-06
 Reference value :  7.00003e-06
 Reference value :  7.00007e-06
 Reference value :  7.00010e-06
 Reference value :  7.00010e-06
 Reference value :  7.00011e-06
 Reference value :  7.00013e-06
 Reference value :  7.00016e-06
 Reference value :  7.00023e-06
 Reference value :  7.00037e-06
 Reference value :  7.00055e-06
 Reference value :  7.00092e-06
 Reference value :  7.00160e-06
 Reference value :  7.00223e-06
 Reference value :  7.00291e-06
 Reference value :  7.00363e-06
 Reference value :  7.00438e-06
 Reference value :  7.00522e-06
 Reference value :  7.00613e-06
 Reference value :  7.00697e-06
 Reference value :  7.00786e-06
 Reference value :  7.00876e-06
 Reference value :  7.00973e-06
 Reference value :  7.01072e-06
 Reference value :  7.01207e-06
 Reference value :  7.01371e-06
 Reference value :  7.01601e-06
 Reference value :  7.01763e-06
 Reference value :  7.01941e-06
 Reference value :  7.02109e-06
 Reference value :  7.02287e-06
 Reference value :  7.02445e-06
 Reference value :  7.02609e-06
 Reference value :  7.02785e-06
 Reference value :  7.02960e-06
 Reference value :  7.03124e-06
 Reference value :  7.03334e-06
 Reference value :  7.03609e-06
 Reference value :  7.03896e-06
 Reference value :  7.04437e-06
 Reference value :  7.05113e-06
 Reference value :  7.05848e-06
 Reference value :  7.06919e-06
 Reference value :  7.09062e-06
 Reference value :  7.12376e-06
 Reference value :  7.15430e-06
 Reference value :  7.19012e-06
 Reference value :  7.22359e-06
 Reference value :  7.25010e-06
 Reference value :  7.25011e-06
 Reference value :  7.25013e-06
 Reference value :  7.25017e-06
 Reference value :  7.25020e-06
 Reference value :  7.25020e-06
 Reference value :  7.25020e-06
 Reference value :  7.25021e-06
 Reference value :  7.25021e-06
 Reference value :  7.25022e-06
 Reference value :  7.25025e-06
 Reference value :  7.25030e-06
 Reference value :  7.25040e-06
 Reference value :  7.25059e-06
 Reference value :  7.25094e-06
 Reference value :  7.25154e-06
 Reference value :  7.25218e-06
 Reference value :  7.25294e-06
 Reference value :  7.25377e-06
 Reference value :  7.25483e-06
 Reference value :  7.25572e-06
 Reference value :  7.25676e-06
 Reference value :  7.25776e-06
 Reference value :  7.25879e-06
 Reference value :  7.26050e-06
 Reference value :  7.26214e-06
 Reference value :  7.26498e-06
 Reference value :  7.26818e-06
 Reference value :  7.27323e-06
 Reference value :  7.28193e-06
 Reference value :  7.29934e-06
 Reference value :  7.33229e-06
 Reference value :  7.39820e-06
 Reference value :  7.50000e-06
 Reference value :  7.50001e-06
 Reference value :  7.50003e-06
 Reference value :  7.50007e-06
 Reference value :  7.50010e-06
 Reference value :  7.50010e-06
 Reference value :  7.50011e-06
 Reference value :  7.50013e-06
 Reference value :  7.50016e-06
 Reference value :  7.50023e-06
 Reference value :  7.50037e-06
 Reference value :  7.50056e-06
 Reference value :  7.50093e-06
 Reference value :  7.50152e-06
 Reference value :  7.50214e-06
 Reference value :  7.50283e-06
 Reference value :  7.50356e-06
 Reference value :  7.50432e-06
 Reference value :  7.50516e-06
 Reference value :  7.50609e-06
 Reference value :  7.50713e-06
 Reference value :  7.50846e-06
 Reference value :  7.50984e-06
 Reference value :  7.51154e-06
 Reference value :  7.51306e-06
 Reference value :  7.51464e-06
 Reference value :  7.51607e-06
 Reference value :  7.51769e-06
 Reference value :  7.51929e-06
 Reference value :  7.52116e-06
 Reference value :  7.52488e-06
 Reference value :  7.53130e-06
 Reference value :  7.54414e-06
 Reference value :  7.56981e-06
 Reference value :  7.62115e-06
 Reference value :  7.72384e-06
 Reference value :  7.75010e-06
 Reference value :  7.75011e-06
 Reference value :  7.75013e-06
 Reference value :  7.75017e-06
 Reference value :  7.75020e-06
 Reference value :  7.75020e-06
 Reference value :  7.75020e-06
 Reference value :  7.75021e-06
 Reference value :  7.75021e-06
 Reference value :  7.75022e-06
 Reference value :  7.75025e-06
 Reference value :  7.75030e-06
 Reference value :  7.75039e-06
 Reference value :  7.75059e-06
 Reference value :  7.75093e-06
 Reference value :  7.75154e-06
 Reference value :  7.75217e-06
 Reference value :  7.75294e-06
 Reference value :  7.75375e-06
 Reference value :  7.75482e-06
 Reference value :  7.75570e-06
 Reference value :  7.75673e-06
 Reference value :  7.75762e-06
 Reference value :  7.75859e-06
 Reference value :  7.75970e-06
 Reference value :  7.76094e-06
 Reference value :  7.76343e-06
 Reference value :  7.76610e-06
 Reference value :  7.77048e-06
 Reference value :  7.77606e-06
 Reference value :  7.78722e-06
 Reference value :  7.80954e-06
 Reference value :  7.85417e-06
 Reference value :  7.94343e-06
 Reference value :  8.00000e-06
 Reference value :  8.00001e-06
 Reference value :  8.00003e-06
 Reference value :  8.00007e-06
 Reference value :  8.00010e-06
 Reference value :  8.00010e-06
 Reference value :  8.00011e-06
 Reference value :  8.00013e-06
 Reference value :  8.00016e-06
 Reference value :  8.00023e-06
 Reference value :  8.00037e-06
 Reference value :  8.00055e-06
 Reference value :  8.00092e-06
 Reference value :  8.00151e-06
 Reference value :  8.00214e-06
 Reference value :  8.00284e-06
 Reference value :  8.00356e-06
 Reference value :  8.00433e-06
 Reference value :  8.00517e-06
 Reference value :  8.00609e-06
 Reference value :  8.00702e-06
 Reference value :  8.00802e-06
 Reference value :  8.00897e-06
 Reference value :  8.00995e-06
 Reference value :  8.01097e-06
 Reference value :  8.01231e-06
 Reference value :  8.01413e-06
 Reference value :  8.01685e-06
 Reference value :  8.02022e-06
 Reference value :  8.02271e-06
 Reference value :  8.02546e-06
 Reference value :  8.02814e-06
 Reference value :  8.03121e-06
 Reference value :  8.03586e-06
 Reference value :  8.04193e-06
 Reference value :  8.05211e-06
 Reference value :  8.06822e-06
 Reference value :  8.09502e-06
 Reference value :  8.14681e-06
 Reference value :  8.24900e-06
 Reference value :  8.25010e-06
 Reference value :  8.25011e-06
 Reference value :  8.25013e-06
 Reference value :  8.25017e-06
 Reference value :  8.25020e-06
 Reference value :  8.25020e-06
 Reference value :  8.25020e-06
 Reference value :  8.25021e-06
 Reference value :  8.25021e-06
 Reference value :  8.25022e-06
 Reference value :  8.25025e-06
 Reference value :  8.25030e-06
 Reference value :  8.25039e-06
 Reference value :  8.25059e-06
 Reference value :  8.25097e-06
 Reference value :  8.25154e-06
 Reference value :  8.25221e-06
 Reference value :  8.25295e-06
 Reference value :  8.25379e-06
 Reference value :  8.25485e-06
 Reference value :  8.25616e-06
 Reference value :  8.25753e-06
 Reference value :  8.25911e-06
 Reference value :  8.26083e-06
 Reference value :  8.26340e-06
 Reference value :  8.26637e-06
 Reference value :  8.27042e-06
 Reference value :  8.27625e-06
 Reference value :  8.28791e-06
 Reference value :  8.31124e-06
 Reference value :  8.35742e-06
 Reference value :  8.44978e-06
 Reference value :  8.50000e-06
 Reference value :  8.50001e-06
 Reference value :  8.50003e-06
 Reference value :  8.50007e-06
 Reference value :  8.50010e-06
 Reference value :  8.50010e-06
 Reference value :  8.50011e-06
 Reference value :  8.50013e-06
 Reference value :  8.50016e-06
 Reference value :  8.50023e-06
 Reference value :  8.50037e-06
 Reference value :  8.50064e-06
 Reference value :  8.50111e-06
 Reference value :  8.50187e-06
 Reference value :  8.50271e-06
 Reference value :  8.50338e-06
 Reference value :  8.50424e-06
 Reference value :  8.50514e-06
 Reference value :  8.50606e-06
 Reference value :  8.50708e-06
 Reference value :  8.50859e-06
 Reference value :  8.51017e-06
 Reference value :  8.51269e-06
 Reference value :  8.51434e-06
 Reference value :  8.51623e-06
 Reference value :  8.51914e-06
 Reference value :  8.52188e-06
 Reference value :  8.52525e-06
 Reference value :  8.53198e-06
 Reference value :  8.53860e-06
 Reference value :  8.54344e-06
 Reference value :  8.54737e-06
 Reference value :  8.55103e-06
 Reference value :  8.55406e-06
 Reference value :  8.55647e-06
 Reference value :  8.55907e-06
 Reference value :  8.56182e-06
 Reference value :  8.56485e-06
 Reference value :  8.56812e-06
 Reference value :  8.57165e-06
 Reference value :  8.57653e-06
 Reference value :  8.58354e-06
 Reference value :  8.59358e-06
 Reference value :  8.61304e-06
 Reference value :  8.64360e-06
 Reference value :  8.66176e-06
 Reference value :  8.68293e-06
 Reference value :  8.70658e-06
 Reference value :  8.74568e-06
 Reference value :  8.75010e-06
 Reference value :  8.75011e-06
 Reference value :  8.75013e-06
 Reference value :  8.75017e-06
 Reference value :  8.75020e-06
 Reference value :  8.75020e-06
 Reference value :  8.75020e-06
 Reference value :  8.75021e-06
 Reference value :  8.75021e-06
 Reference value :  8.75022e-06
 Reference value :  8.75025e-06
 Reference value :  8.75030e-06
 Reference value :  8.75040e-06
 Reference value :  8.75059e-06
 Reference value :  8.75098e-06
 Reference value :  8.75155e-06
 Reference value :  8.75223e-06
 Reference value :  8.75299e-06
 Reference value :  8.75380e-06
 Reference value :  8.75492e-06
 Reference value :  8.75585e-06
 Reference value :  8.75691e-06
 Reference value :  8.75789e-06
 Reference value :  8.75893e-06
 Reference value :  8.76060e-06
 Reference value :  8.76227e-06
 Reference value :  8.76497e-06
 Reference value :  8.76838e-06
 Reference value :  8.77336e-06
 Reference value :  8.78333e-06
 Reference value :  8.80065e-06
 Reference value :  8.83183e-06
 Reference value :  8.89406e-06
 Reference value :  8.97761e-06
 Reference value :  9.00000e-06
 Reference value :  9.00001e-06
 Reference value :  9.00003e-06
 Reference value :  9.00007e-06
 Reference value :  9.00010e-06
 Reference value :  9.00010e-06
 Reference value :  9.00011e-06
 Reference value :  9.00013e-06
 Reference value :  9.00016e-06
 Reference value :  9.00023e-06
 Reference value :  9.00037e-06
 Reference value :  9.00056e-06
 Reference value :  9.00094e-06
 Reference value :  9.00153e-06
 Reference value :  9.00216e-06
 Reference value :  9.00286e-06
 Reference value :  9.00368e-06
 Reference value :  9.00443e-06
 Reference value :  9.00531e-06
 Reference value :  9.00625e-06
 Reference value :  9.00722e-06
 Reference value :  9.00866e-06
 Reference value :  9.01003e-06
 Reference value :  9.01255e-06
 Reference value :  9.01560e-06
 Reference value :  9.01778e-06
 Reference value :  9.02027e-06
 Reference value :  9.02270e-06
 Reference value :  9.02526e-06
 Reference value :  9.02838e-06
 Reference value :  9.03319e-06
 Reference value :  9.03992e-06
 Reference value :  9.04962e-06
 Reference value :  9.06900e-06
 Reference value :  9.09707e-06
 Reference value :  9.14866e-06
 Reference value :  9.24880e-06
 Reference value :  9.25010e-06
 Reference value :  9.25011e-06
 Reference value :  9.25013e-06
 Reference value :  9.25017e-06
 Reference value :  9.25020e-06
 Reference value :  9.25020e-06
 Reference value :  9.25020e-06
 Reference value :  9.25021e-06
 Reference value :  9.25021e-06
 Reference value :  9.25022e-06
 Reference value :  9.25025e-06
 Reference value :  9.25030e-06
 Reference value :  9.25040e-06
 Reference value :  9.25059e-06
 Reference value :  9.25098e-06
 Reference value :  9.25157e-06
 Reference value :  9.25224e-06
 Reference value :  9.25299e-06
 Reference value :  9.25383e-06
 Reference value :  9.25492e-06
 Reference value :  9.25581e-06
 Reference value :  9.25686e-06
 Reference value :  9.25777e-06
 Reference value :  9.25874e-06
 Reference value :  9.25991e-06
 Reference value :  9.26119e-06
 Reference value :  9.26376e-06
 Reference value :  9.26656e-06
 Reference value :  9.27108e-06
 Reference value :  9.27714e-06
 Reference value :  9.28926e-06
 Reference value :  9.31350e-06
 Reference value :  9.36198e-06
 Reference value :  9.45895e-06
 Reference value :  9.50000e-06
 Reference value :  9.50001e-06
 Reference value :  9.50003e-06
 Reference value :  9.50007e-06
 Reference value :  9.50010e-06
 Reference value :  9.50010e-06
 Reference value :  9.50011e-06
 Reference value :  9.50013e-06
 Reference value :  9.50016e-06
 Reference value :  9.50023e-06
 Reference value :  9.50037e-06
 Reference value :  9.50056e-06
 Reference value :  9.50094e-06
 Reference value :  9.50153e-06
 Reference value :  9.50216e-06
 Reference value :  9.50285e-06
 Reference value :  9.50357e-06
 Reference value :  9.50432e-06
 Reference value :  9.50516e-06
 Reference value :  9.50607e-06
 Reference value :  9.50702e-06
 Reference value :  9.50795e-06
 Reference value :  9.50904e-06
 Reference value :  9.51001e-06
 Reference value :  9.51108e-06
 Reference value :  9.51259e-06
 Reference value :  9.51428e-06
 Reference value :  9.51717e-06
 Reference value :  9.52014e-06
 Reference value :  9.52249e-06
 Reference value :  9.52463e-06
 Reference value :  9.52616e-06
 Reference value :  9.52772e-06
 Reference value :  9.52919e-06
 Reference value :  9.53076e-06
 Reference value :  9.53252e-06
 Reference value :  9.53500e-06
 Reference value :  9.53757e-06
 Reference value :  9.54221e-06
 Reference value :  9.54898e-06
 Reference value :  9.55938e-06
 Reference value :  9.57685e-06
 Reference value :  9.60467e-06
 Reference value :  9.64411e-06
 Reference value :  9.70151e-06
 Reference value :  9.75010e-06
 Reference value :  9.75011e-06
 Reference value :  9.75013e-06
 Reference value :  9.75017e-06
 Reference value :  9.75020e-06
 Reference value :  9.75020e-06
 Reference value :  9.75020e-06
 Reference value :  9.75021e-06
 Reference value :  9.75021e-06
 Reference value :  9.75022e-06
 Reference value :  9.75025e-06
 Reference value :  9.75030e-06
 Reference value :  9.75040e-06
 Reference value :  9.75059e-06
 Reference value :  9.75094e-06
 Reference value :  9.75156e-06
 Reference value :  9.75219e-06
 Reference value :  9.75296e-06
 Reference value :  9.75378e-06
 Reference value :  9.75486e-06
 Reference value :  9.75572e-06
 Reference value :  9.75673e-06
 Reference value :  9.75769e-06
 Reference value :  9.75871e-06
 Reference value :  9.76039e-06
 Reference value :  9.76199e-06
 Reference value :  9.76481e-06
 Reference value :  9.76790e-06
 Reference value :  9.77292e-06
 Reference value :  9.77814e-06
 Reference value :  9.78318e-06
 Reference value :  9.78765e-06
 Reference value :  9.79275e-06
 Reference value :  9.80294e-06
 Reference value :  9.82332e-06
 Reference value :  9.86082e-06
 Reference value :  9.92776e-06
 Reference value :  1.00000e-05
 Reference value :  1.00000e-05
 Reference value :  1.00000e-05
 Reference value :  1.00001e-05
 Reference value :  1.00001e-05
 Reference value :  1.00001e-05
 Reference value :  1.00001e-05
 Reference value :  1.00001e-05
 Reference value :  1.00002e-05
 Reference value :  1.00002e-05
 Reference value :  1.00004e-05
 Reference value :  1.00006e-05
 Reference value :  1.00009e-05
 Reference value :  1.00016e-05
 Reference value :  1.00022e-05
 Reference value :  1.00029e-05
 Reference value :  1.00036e-05
 Reference value :  1.00043e-05
 Reference value :  1.00052e-05
 Reference value :  1.00061e-05
 Reference value :  1.00071e-05
 Reference value :  1.00085e-05
 Reference value :  1.00098e-05
 Reference value :  1.00114e-05
 Reference value :  1.00128e-05
 Reference value :  1.00143e-05
 Reference value :  1.00163e-05
 Reference value :  1.00182e-05
 Reference value :  1.00202e-05
 Reference value :  1.00234e-05
 Reference value :  1.00262e-05
 Reference value :  1.00317e-05
 Reference value :  1.00390e-05
 Reference value :  1.00511e-05
 Reference value :  1.00721e-05
 Reference value :  1.01054e-05
 Reference value :  1.01652e-05
 Reference value :  1.02501e-05
 Reference value :  1.02501e-05
 Reference value :  1.02501e-05
 Reference value :  1.02502e-05
 Reference value :  1.02502e-05
 Reference value :  1.02502e-05
 Reference value :  1.02502e-05
 Reference value :  1.02502e-05
 Reference value :  1.02502e-05
 Reference value :  1.02502e-05
 Reference value :  1.02502e-05
 Reference value :  1.02503e-05
 Reference value :  1.02504e-05
 Reference value :  1.02506e-05
 Reference value :  1.02509e-05
 Reference value :  1.02516e-05
 Reference value :  1.02522e-05
 Reference value :  1.02530e-05
 Reference value :  1.02538e-05
 Reference value :  1.02548e-05
 Reference value :  1.02558e-05
 Reference value :  1.02568e-05
 Reference value :  1.02577e-05
 Reference value :  1.02587e-05
 Reference value :  1.02599e-05
 Reference value :  1.02611e-05
 Reference value :  1.02625e-05
 Reference value :  1.02642e-05
 Reference value :  1.02665e-05
 Reference value :  1.02692e-05
 Reference value :  1.02729e-05
 Reference value :  1.02781e-05
 Reference value :  1.02884e-05
 Reference value :  1.03061e-05
 Reference value :  1.03414e-05
 Reference value :  1.04121e-05
 Reference value :  1.05000e-05
 Reference value :  1.05000e-05
 Reference value :  1.05000e-05
 Reference value :  1.05001e-05
 Reference value :  1.05001e-05
 Reference value :  1.05001e-05
 Reference value :  1.05001e-05
 Reference value :  1.05001e-05
 Reference value :  1.05002e-05
 Reference value :  1.05002e-05
 Reference value :  1.05004e-05
 Reference value :  1.05006e-05
 Reference value :  1.05009e-05
 Reference value :  1.05016e-05
 Reference value :  1.05022e-05
 Reference value :  1.05029e-05
 Reference value :  1.05036e-05
 Reference value :  1.05044e-05
 Reference value :  1.05052e-05
 Reference value :  1.05061e-05
 Reference value :  1.05070e-05
 Reference value :  1.05079e-05
 Reference value :  1.05087e-05
 Reference value :  1.05097e-05
 Reference value :  1.05106e-05
 Reference value :  1.05118e-05
 Reference value :  1.05131e-05
 Reference value :  1.05154e-05
 Reference value :  1.05179e-05
 Reference value :  1.05197e-05
 Reference value :  1.05218e-05
 Reference value :  1.05237e-05
 Reference value :  1.05252e-05
 Reference value :  1.05266e-05
 Reference value :  1.05280e-05
 Reference value :  1.05296e-05
 Reference value :  1.05315e-05
 Reference value :  1.05332e-05
 Reference value :  1.05360e-05
 Reference value :  1.05388e-05
 Reference value :  1.05446e-05
 Reference value :  1.05533e-05
 Reference value :  1.05675e-05
 Reference value :  1.05880e-05
 Reference value :  1.06066e-05
 Reference value :  1.06225e-05
 Reference value :  1.06322e-05
 Reference value :  1.06421e-05
 Reference value :  1.06541e-05
 Reference value :  1.06662e-05
 Reference value :  1.06850e-05
 Reference value :  1.07055e-05
 Reference value :  1.07337e-05
 Reference value :  1.07501e-05
 Reference value :  1.07501e-05
 Reference value :  1.07501e-05
 Reference value :  1.07502e-05
 Reference value :  1.07502e-05
 Reference value :  1.07502e-05
 Reference value :  1.07502e-05
 Reference value :  1.07502e-05
 Reference value :  1.07502e-05
 Reference value :  1.07502e-05
 Reference value :  1.07502e-05
 Reference value :  1.07503e-05
 Reference value :  1.07504e-05
 Reference value :  1.07506e-05
 Reference value :  1.07509e-05
 Reference value :  1.07515e-05
 Reference value :  1.07522e-05
 Reference value :  1.07529e-05
 Reference value :  1.07538e-05
 Reference value :  1.07548e-05
 Reference value :  1.07558e-05
 Reference value :  1.07569e-05
 Reference value :  1.07580e-05
 Reference value :  1.07590e-05
 Reference value :  1.07608e-05
 Reference value :  1.07626e-05
 Reference value :  1.07654e-05
 Reference value :  1.07689e-05
 Reference value :  1.07742e-05
 Reference value :  1.07848e-05
 Reference value :  1.08030e-05
 Reference value :  1.08360e-05
 Reference value :  1.09022e-05
 Reference value :  1.09665e-05
 Reference value :  1.10000e-05
 Reference value :  1.10000e-05
 Reference value :  1.10000e-05
 Reference value :  1.10001e-05
 Reference value :  1.10001e-05
 Reference value :  1.10001e-05
 Reference value :  1.10001e-05
 Reference value :  1.10001e-05
 Reference value :  1.10002e-05
 Reference value :  1.10002e-05
 Reference value :  1.10004e-05
 Reference value :  1.10006e-05
 Reference value :  1.10009e-05
 Reference value :  1.10016e-05
 Reference value :  1.10022e-05
 Reference value :  1.10029e-05
 Reference value :  1.10036e-05
 Reference value :  1.10044e-05
 Reference value :  1.10052e-05
 Reference value :  1.10062e-05
 Reference value :  1.10072e-05
 Reference value :  1.10085e-05
 Reference value :  1.10099e-05
 Reference value :  1.10115e-05
 Reference value :  1.10130e-05
 Reference value :  1.10146e-05
 Reference value :  1.10166e-05
 Reference value :  1.10183e-05
 Reference value :  1.10203e-05
 Reference value :  1.10224e-05
 Reference value :  1.10266e-05
 Reference value :  1.10348e-05
 Reference value :  1.10485e-05
 Reference value :  1.10758e-05
 Reference value :  1.11305e-05
 Reference value :  1.12398e-05
 Reference value :  1.12501e-05
 Reference value :  1.12501e-05
 Reference value :  1.12501e-05
 Reference value :  1.12502e-05
 Reference value :  1.12502e-05
 Reference value :  1.12502e-05
 Reference value :  1.12502e-05
 Reference value :  1.12502e-05
 Reference value :  1.12502e-05
 Reference value :  1.12502e-05
 Reference value :  1.12502e-05
 Reference value :  1.12503e-05
 Reference value :  1.12504e-05
 Reference value :  1.12506e-05
 Reference value :  1.12509e-05
 Reference value :  1.12515e-05
 Reference value :  1.12522e-05
 Reference value :  1.12529e-05
 Reference value :  1.12538e-05
 Reference value :  1.12548e-05
 Reference value :  1.12558e-05
 Reference value :  1.12568e-05
 Reference value :  1.12578e-05
 Reference value :  1.12588e-05
 Reference value :  1.12599e-05
 Reference value :  1.12612e-05
 Reference value :  1.12637e-05
 Reference value :  1.12665e-05
 Reference value :  1.12711e-05
 Reference value :  1.12772e-05
 Reference value :  1.12894e-05
 Reference value :  1.13138e-05
 Reference value :  1.13627e-05
 Reference value :  1.14604e-05
 Reference value :  1.15000e-05
 Reference value :  1.15000e-05
 Reference value :  1.15000e-05
 Reference value :  1.15001e-05
 Reference value :  1.15001e-05
 Reference value :  1.15001e-05
 Reference value :  1.15001e-05
 Reference value :  1.15001e-05
 Reference value :  1.15002e-05
 Reference value :  1.15002e-05
 Reference value :  1.15004e-05
 Reference value :  1.15006e-05
 Reference value :  1.15009e-05
 Reference value :  1.15016e-05
 Reference value :  1.15022e-05
 Reference value :  1.15029e-05
 Reference value :  1.15036e-05
 Reference value :  1.15044e-05
 Reference value :  1.15052e-05
 Reference value :  1.15061e-05
 Reference value :  1.15071e-05
 Reference value :  1.15081e-05
 Reference value :  1.15092e-05
 Reference value :  1.15102e-05
 Reference value :  1.15113e-05
 Reference value :  1.15127e-05
 Reference value :  1.15145e-05
 Reference value :  1.15175e-05
 Reference value :  1.15203e-05
 Reference value :  1.15227e-05
 Reference value :  1.15246e-05
 Reference value :  1.15264e-05
 Reference value :  1.15284e-05
 Reference value :  1.15303e-05
 Reference value :  1.15325e-05
 Reference value :  1.15347e-05
 Reference value :  1.15381e-05
 Reference value :  1.15418e-05
 Reference value :  1.15493e-05
 Reference value :  1.15611e-05
 Reference value :  1.15798e-05
 Reference value :  1.15991e-05
 Reference value :  1.16172e-05
 Reference value :  1.16309e-05
 Reference value :  1.16438e-05
 Reference value :  1.16557e-05
 Reference value :  1.16655e-05
 Reference value :  1.16737e-05
 Reference value :  1.16826e-05
 Reference value :  1.17006e-05
 Reference value :  1.17207e-05
 Reference value :  1.17501e-05
 Reference value :  1.17501e-05
 Reference value :  1.17501e-05
 Reference value :  1.17502e-05
 Reference value :  1.17502e-05
 Reference value :  1.17502e-05
 Reference value :  1.17502e-05
 Reference value :  1.17502e-05
 Reference value :  1.17502e-05
 Reference value :  1.17502e-05
 Reference value :  1.17502e-05
 Reference value :  1.17503e-05
 Reference value :  1.17504e-05
 Reference value :  1.17506e-05
 Reference value :  1.17509e-05
 Reference value :  1.17515e-05
 Reference value :  1.17522e-05
 Reference value :  1.17529e-05
 Reference value :  1.17538e-05
 Reference value :  1.17548e-05
 Reference value :  1.17557e-05
 Reference value :  1.17567e-05
 Reference value :  1.17577e-05
 Reference value :  1.17587e-05
 Reference value :  1.17604e-05
 Reference value :  1.17620e-05
 Reference value :  1.17648e-05
 Reference value :  1.17679e-05
 Reference value :  1.17729e-05
 Reference value :  1.17818e-05
 Reference value :  1.17997e-05
 Reference value :  1.18353e-05
 Reference value :  1.18830e-05
 Reference value :  1.19315e-05
 Reference value :  1.19741e-05
 Reference value :  1.19939e-05
 Reference value :  1.20000e-05
 Reference value :  1.20000e-05
 Reference value :  1.20000e-05
 Reference value :  1.20001e-05
 Reference value :  1.20001e-05
 Reference value :  1.20001e-05
 Reference value :  1.20001e-05
 Reference value :  1.20001e-05
 Reference value :  1.20002e-05
 Reference value :  1.20002e-05
 Reference value :  1.20004e-05
 Reference value :  1.20006e-05
 Reference value :  1.20009e-05
 Reference value :  1.20016e-05
 Reference value :  1.20022e-05
 Reference value :  1.20029e-05
 Reference value :  1.20036e-05
 Reference value :  1.20044e-05
 Reference value :  1.20052e-05
 Reference value :  1.20062e-05
 Reference value :  1.20071e-05
 Reference value :  1.20085e-05
 Reference value :  1.20098e-05
 Reference value :  1.20114e-05
 Reference value :  1.20129e-05
 Reference value :  1.20145e-05
 Reference value :  1.20160e-05
 Reference value :  1.20177e-05
 Reference value :  1.20194e-05
 Reference value :  1.20213e-05
 Reference value :  1.20252e-05
 Reference value :  1.20328e-05
 Reference value :  1.20457e-05
 Reference value :  1.20716e-05
 Reference value :  1.21233e-05
 Reference value :  1.22265e-05
 Reference value :  1.22501e-05
 Reference value :  1.22501e-05
 Reference value :  1.22501e-05
 Reference value :  1.22502e-05
 Reference value :  1.22502e-05
 Reference value :  1.22502e-05
 Reference value :  1.22502e-05
 Reference value :  1.22502e-05
 Reference value :  1.22502e-05
 Reference value :  1.22502e-05
 Reference value :  1.22502e-05
 Reference value :  1.22503e-05
 Reference value :  1.22504e-05
 Reference value :  1.22506e-05
 Reference value :  1.22509e-05
 Reference value :  1.22515e-05
 Reference value :  1.22522e-05
 Reference value :  1.22529e-05
 Reference value :  1.22538e-05
 Reference value :  1.22548e-05
 Reference value :  1.22557e-05
 Reference value :  1.22568e-05
 Reference value :  1.22578e-05
 Reference value :  1.22587e-05
 Reference value :  1.22599e-05
 Reference value :  1.22612e-05
 Reference value :  1.22637e-05
 Reference value :  1.22665e-05
 Reference value :  1.22710e-05
 Reference value :  1.22771e-05
 Reference value :  1.22892e-05
 Reference value :  1.23134e-05
 Reference value :  1.23618e-05
 Reference value :  1.24586e-05
 Reference value :  1.25000e-05
 Reference value :  1.25000e-05
 Reference value :  1.25000e-05
 Reference value :  1.25001e-05
 Reference value :  1.25001e-05
 Reference value :  1.25001e-05
 Reference value :  1.25001e-05
 Reference value :  1.25001e-05
 Reference value :  1.25002e-05
 Reference value :  1.25002e-05
 Reference value :  1.25004e-05
 Reference value :  1.25006e-05
 Reference value :  1.25009e-05
 Reference value :  1.25016e-05
 Reference value :  1.25022e-05
 Reference value :  1.25029e-05
 Reference value :  1.25036e-05
 Reference value :  1.25044e-05
 Reference value :  1.25052e-05
 Reference value :  1.25061e-05
 Reference value :  1.25072e-05
 Reference value :  1.25082e-05
 Reference value :  1.25091e-05
 Reference value :  1.25101e-05
 Reference value :  1.25112e-05
 Reference value :  1.25125e-05
 Reference value :  1.25144e-05
 Reference value :  1.25173e-05
 Reference value :  1.25202e-05
 Reference value :  1.25225e-05
 Reference value :  1.25245e-05
 Reference value :  1.25263e-05
 Reference value :  1.25283e-05
 Reference value :  1.25302e-05
 Reference value :  1.25323e-05
 Reference value :  1.25347e-05
 Reference value :  1.25380e-05
 Reference value :  1.25420e-05
 Reference value :  1.25460e-05
 Reference value :  1.25510e-05
 Reference value :  1.25568e-05
 Reference value :  1.25618e-05
 Reference value :  1.25658e-05
 Reference value :  1.25701e-05
 Reference value :  1.25757e-05
 Reference value :  1.25814e-05
 Reference value :  1.25894e-05
 Reference value :  1.25961e-05
 Reference value :  1.26040e-05
 Reference value :  1.26163e-05
 Reference value :  1.26342e-05
 Reference value :  1.26603e-05
 Reference value :  1.26956e-05
 Reference value :  1.27405e-05
 Reference value :  1.27501e-05
 Reference value :  1.27501e-05
 Reference value :  1.27501e-05
 Reference value :  1.27502e-05
 Reference value :  1.27502e-05
 Reference value :  1.27502e-05
 Reference value :  1.27502e-05
 Reference value :  1.27502e-05
 Reference value :  1.27502e-05
 Reference value :  1.27502e-05
 Reference value :  1.27502e-05
 Reference value :  1.27503e-05
 Reference value :  1.27504e-05
 Reference value :  1.27506e-05
 Reference value :  1.27509e-05
 Reference value :  1.27515e-05
 Reference value :  1.27522e-05
 Reference value :  1.27529e-05
 Reference value :  1.27537e-05
 Reference value :  1.27548e-05
 Reference value :  1.27557e-05
 Reference value :  1.27567e-05
 Reference value :  1.27577e-05
 Reference value :  1.27587e-05
 Reference value :  1.27604e-05
 Reference value :  1.27620e-05
 Reference value :  1.27649e-05
 Reference value :  1.27680e-05
 Reference value :  1.27730e-05
 Reference value :  1.27819e-05
 Reference value :  1.27996e-05
 Reference value :  1.28351e-05
 Reference value :  1.29061e-05
 Reference value :  1.30000e-05
 Reference value :  1.30000e-05
 Reference value :  1.30000e-05
 Reference value :  1.30001e-05
 Reference value :  1.30001e-05
 Reference value :  1.30001e-05
 Reference value :  1.30001e-05
 Reference value :  1.30001e-05
 Reference value :  1.30002e-05
 Reference value :  1.30002e-05
 Reference value :  1.30004e-05
 Reference value :  1.30006e-05
 Reference value :  1.30009e-05
 Reference value :  1.30016e-05
 Reference value :  1.30022e-05
 Reference value :  1.30029e-05
 Reference value :  1.30036e-05
 Reference value :  1.30043e-05
 Reference value :  1.30052e-05
 Reference value :  1.30061e-05
 Reference value :  1.30070e-05
 Reference value :  1.30084e-05
 Reference value :  1.30096e-05
 Reference value :  1.30112e-05
 Reference value :  1.30125e-05
 Reference value :  1.30139e-05
 Reference value :  1.30153e-05
 Reference value :  1.30170e-05
 Reference value :  1.30190e-05
 Reference value :  1.30208e-05
 Reference value :  1.30244e-05
 Reference value :  1.30316e-05
 Reference value :  1.30440e-05
 Reference value :  1.30688e-05
 Reference value :  1.31183e-05
 Reference value :  1.32175e-05
 Reference value :  1.32501e-05
 Reference value :  1.32501e-05
 Reference value :  1.32501e-05
 Reference value :  1.32502e-05
 Reference value :  1.32502e-05
 Reference value :  1.32502e-05
 Reference value :  1.32502e-05
 Reference value :  1.32502e-05
 Reference value :  1.32502e-05
 Reference value :  1.32502e-05
 Reference value :  1.32502e-05
 Reference value :  1.32503e-05
 Reference value :  1.32504e-05
 Reference value :  1.32506e-05
 Reference value :  1.32509e-05
 Reference value :  1.32515e-05
 Reference value :  1.32522e-05
 Reference value :  1.32529e-05
 Reference value :  1.32537e-05
 Reference value :  1.32548e-05
 Reference value :  1.32557e-05
 Reference value :  1.32568e-05
 Reference value :  1.32577e-05
 Reference value :  1.32587e-05
 Reference value :  1.32599e-05
 Reference value :  1.32611e-05
 Reference value :  1.32624e-05
 Reference value :  1.32642e-05
 Reference value :  1.32664e-05
 Reference value :  1.32691e-05
 Reference value :  1.32728e-05
 Reference value :  1.32779e-05
 Reference value :  1.32881e-05
 Reference value :  1.33045e-05
 Reference value :  1.33373e-05
 Reference value :  1.34029e-05
 Reference value :  1.35000e-05
 Reference value :  1.35000e-05
 Reference value :  1.35000e-05
 Reference value :  1.35001e-05
 Reference value :  1.35001e-05
 Reference value :  1.35001e-05
 Reference value :  1.35001e-05
 Reference value :  1.35001e-05
 Reference value :  1.35002e-05
 Reference value :  1.35002e-05
 Reference value :  1.35004e-05
 Reference value :  1.35006e-05
 Reference value :  1.35009e-05
 Reference value :  1.35016e-05
 Reference value :  1.35022e-05
 Reference value :  1.35029e-05
 Reference value :  1.35036e-05
 Reference value :  1.35044e-05
 Reference value :  1.35052e-05
 Reference value :  1.35061e-05
 Reference value :  1.35070e-05
 Reference value :  1.35079e-05
 Reference value :  1.35088e-05
 Reference value :  1.35098e-05
 Reference value :  1.35108e-05
 Reference value :  1.35122e-05
 Reference value :  1.35139e-05
 Reference value :  1.35154e-05
 Reference value :  1.35171e-05
 Reference value :  1.35188e-05
 Reference value :  1.35205e-05
 Reference value :  1.35223e-05
 Reference value :  1.35237e-05
 Reference value :  1.35250e-05
 Reference value :  1.35267e-05
 Reference value :  1.35283e-05
 Reference value :  1.35299e-05
 Reference value :  1.35319e-05
 Reference value :  1.35339e-05
 Reference value :  1.35369e-05
 Reference value :  1.35407e-05
 Reference value :  1.35478e-05
 Reference value :  1.35560e-05
 Reference value :  1.35638e-05
 Reference value :  1.35695e-05
 Reference value :  1.35750e-05
 Reference value :  1.35803e-05
 Reference value :  1.35855e-05
 Reference value :  1.35910e-05
 Reference value :  1.35995e-05
 Reference value :  1.36096e-05
 Reference value :  1.36259e-05
 Reference value :  1.36442e-05
 Reference value :  1.36626e-05
 Reference value :  1.36884e-05
 Reference value :  1.37064e-05
 Reference value :  1.37232e-05
 Reference value :  1.37388e-05
 Reference value :  1.37501e-05
 Reference value :  1.37501e-05
 Reference value :  1.37501e-05
 Reference value :  1.37502e-05
 Reference value :  1.37502e-05
 Reference value :  1.37502e-05
 Reference value :  1.37502e-05
 Reference value :  1.37502e-05
 Reference value :  1.37502e-05
 Reference value :  1.37502e-05
 Reference value :  1.37502e-05
 Reference value :  1.37503e-05
 Reference value :  1.37504e-05
 Reference value :  1.37506e-05
 Reference value :  1.37509e-05
 Reference value :  1.37515e-05
 Reference value :  1.37522e-05
 Reference value :  1.37529e-05
 Reference value :  1.37537e-05
 Reference value :  1.37548e-05
 Reference value :  1.37557e-05
 Reference value :  1.37568e-05
 Reference value :  1.37578e-05
 Reference value :  1.37588e-05
 Reference value :  1.37605e-05
 Reference value :  1.37622e-05
 Reference value :  1.37650e-05
 Reference value :  1.37682e-05
 Reference value :  1.37733e-05
 Reference value :  1.37833e-05
 Reference value :  1.38025e-05
 Reference value :  1.38401e-05
 Reference value :  1.39069e-05
 Reference value :  1.39774e-05
 Reference value :  1.40000e-05
 Reference value :  1.40000e-05
 Reference value :  1.40000e-05
 Reference value :  1.40001e-05
 Reference value :  1.40001e-05
 Reference value :  1.40001e-05
 Reference value :  1.40001e-05
 Reference value :  1.40001e-05
 Reference value :  1.40002e-05
 Reference value :  1.40002e-05
 Reference value :  1.40004e-05
 Reference value :  1.40006e-05
 Reference value :  1.40009e-05
 Reference value :  1.40016e-05
 Reference value :  1.40022e-05
 Reference value :  1.40029e-05
 Reference value :  1.40036e-05
 Reference value :  1.40043e-05
 Reference value :  1.40052e-05
 Reference value :  1.40061e-05
 Reference value :  1.40071e-05
 Reference value :  1.40085e-05
 Reference value :  1.40098e-05
 Reference value :  1.40114e-05
 Reference value :  1.40131e-05
 Reference value :  1.40146e-05
 Reference value :  1.40162e-05
 Reference value :  1.40178e-05
 Reference value :  1.40196e-05
 Reference value :  1.40217e-05
 Reference value :  1.40255e-05
 Reference value :  1.40309e-05
 Reference value :  1.40414e-05
 Reference value :  1.40609e-05
 Reference value :  1.40972e-05
 Reference value :  1.41690e-05
 Reference value :  1.42501e-05
 Reference value :  1.42501e-05
 Reference value :  1.42501e-05
 Reference value :  1.42502e-05
 Reference value :  1.42502e-05
 Reference value :  1.42502e-05
 Reference value :  1.42502e-05
 Reference value :  1.42502e-05
 Reference value :  1.42502e-05
 Reference value :  1.42502e-05
 Reference value :  1.42502e-05
 Reference value :  1.42503e-05
 Reference value :  1.42504e-05
 Reference value :  1.42506e-05
 Reference value :  1.42509e-05
 Reference value :  1.42515e-05
 Reference value :  1.42522e-05
 Reference value :  1.42529e-05
 Reference value :  1.42537e-05
 Reference value :  1.42548e-05
 Reference value :  1.42557e-05
 Reference value :  1.42568e-05
 Reference value :  1.42578e-05
 Reference value :  1.42588e-05
 Reference value :  1.42599e-05
 Reference value :  1.42612e-05
 Reference value :  1.42626e-05
 Reference value :  1.42643e-05
 Reference value :  1.42668e-05
 Reference value :  1.42695e-05
 Reference value :  1.42734e-05
 Reference value :  1.42788e-05
 Reference value :  1.42895e-05
 Reference value :  1.43109e-05
 Reference value :  1.43538e-05
 Reference value :  1.44395e-05
 Reference value :  1.45000e-05
 Reference value :  1.45000e-05
 Reference value :  1.45000e-05
 Reference value :  1.45001e-05
 Reference value :  1.45001e-05
 Reference value :  1.45001e-05
 Reference value :  1.45001e-05
 Reference value :  1.45001e-05
 Reference value :  1.45002e-05
 Reference value :  1.45002e-05
 Reference value :  1.45004e-05
 Reference value :  1.45006e-05
 Reference value :  1.45009e-05
 Reference value :  1.45016e-05
 Reference value :  1.45022e-05
 Reference value :  1.45029e-05
 Reference value :  1.45036e-05
 Reference value :  1.45044e-05
 Reference value :  1.45052e-05
 Reference value :  1.45061e-05
 Reference value :  1.45071e-05
 Reference value :  1.45079e-05
 Reference value :  1.45088e-05
 Reference value :  1.45098e-05
 Reference value :  1.45108e-05
 Reference value :  1.45121e-05
 Reference value :  1.45139e-05
 Reference value :  1.45157e-05
 Reference value :  1.45175e-05
 Reference value :  1.45195e-05
 Reference value :  1.45214e-05
 Reference value :  1.45233e-05
 Reference value :  1.45247e-05
 Reference value :  1.45260e-05
 Reference value :  1.45274e-05
 Reference value :  1.45288e-05
 Reference value :  1.45302e-05
 Reference value :  1.45318e-05
 Reference value :  1.45340e-05
 Reference value :  1.45366e-05
 Reference value :  1.45402e-05
 Reference value :  1.45444e-05
 Reference value :  1.45485e-05
 Reference value :  1.45518e-05
 Reference value :  1.45550e-05
 Reference value :  1.45586e-05
 Reference value :  1.45625e-05
 Reference value :  1.45662e-05
 Reference value :  1.45735e-05
 Reference value :  1.45831e-05
 Reference value :  1.45983e-05
 Reference value :  1.46281e-05
 Reference value :  1.46716e-05
 Reference value :  1.47493e-05
 Reference value :  1.47501e-05
 Reference value :  1.47501e-05
 Reference value :  1.47501e-05
 Reference value :  1.47502e-05
 Reference value :  1.47502e-05
 Reference value :  1.47502e-05
 Reference value :  1.47502e-05
 Reference value :  1.47502e-05
 Reference value :  1.47502e-05
 Reference value :  1.47502e-05
 Reference value :  1.47502e-05
 Reference value :  1.47503e-05
 Reference value :  1.47504e-05
 Reference value :  1.47506e-05
 Reference value :  1.47509e-05
 Reference value :  1.47515e-05
 Reference value :  1.47522e-05
 Reference value :  1.47529e-05
 Reference value :  1.47537e-05
 Reference value :  1.47548e-05
 Reference value :  1.47558e-05
 Reference value :  1.47569e-05
 Reference value :  1.47580e-05
 Reference value :  1.47590e-05
 Reference value :  1.47608e-05
 Reference value :  1.47626e-05
 Reference value :  1.47654e-05
 Reference value :  1.47689e-05
 Reference value :  1.47742e-05
 Reference value :  1.47848e-05
 Reference value :  1.48031e-05
 Reference value :  1.48365e-05
 Reference value :  1.49032e-05
 Reference value :  1.50000e-05
 Reference value :  1.50000e-05
 Reference value :  1.50000e-05
 Reference value :  1.50001e-05
 Reference value :  1.50001e-05
 Reference value :  1.50001e-05
 Reference value :  1.50001e-05
 Reference value :  1.50001e-05
 Reference value :  1.50002e-05
 Reference value :  1.50002e-05
 Reference value :  1.50004e-05
 Reference value :  1.50006e-05
 Reference value :  1.50009e-05
 Reference value :  1.50016e-05
 Reference value :  1.50022e-05
 Reference value :  1.50029e-05
 Reference value :  1.50036e-05
 Reference value :  1.50044e-05
 Reference value :  1.50052e-05
 Reference value :  1.50061e-05
 Reference value :  1.50071e-05
 Reference value :  1.50085e-05
 Reference value :  1.50098e-05
 Reference value :  1.50114e-05
 Reference value :  1.50129e-05
 Reference value :  1.50144e-05
 Reference value :  1.50159e-05
 Reference value :  1.50175e-05
 Reference value :  1.50191e-05
 Reference value :  1.50210e-05
 Reference value :  1.50248e-05
 Reference value :  1.50305e-05
 Reference value :  1.50418e-05
 Reference value :  1.50645e-05
 Reference value :  1.51098e-05
 Reference value :  1.52004e-05
 Reference value :  1.52501e-05
 Reference value :  1.52501e-05
 Reference value :  1.52501e-05
 Reference value :  1.52502e-05
 Reference value :  1.52502e-05
 Reference value :  1.52502e-05
 Reference value :  1.52502e-05
 Reference value :  1.52502e-05
 Reference value :  1.52502e-05
 Reference value :  1.52502e-05
 Reference value :  1.52502e-05
 Reference value :  1.52503e-05
 Reference value :  1.52504e-05
 Reference value :  1.52506e-05
 Reference value :  1.52509e-05
 Reference value :  1.52515e-05
 Reference value :  1.52522e-05
 Reference value :  1.52529e-05
 Reference value :  1.52537e-05
 Reference value :  1.52548e-05
 Reference value :  1.52557e-05
 Reference value :  1.52568e-05
 Reference value :  1.52578e-05
 Reference value :  1.52588e-05
 Reference value :  1.52599e-05
 Reference value :  1.52612e-05
 Reference value :  1.52637e-05
 Reference value :  1.52666e-05
 Reference value :  1.52711e-05
 Reference value :  1.52772e-05
 Reference value :  1.52895e-05
 Reference value :  1.53140e-05
 Reference value :  1.53630e-05
 Reference value :  1.54611e-05
 Reference value :  1.55000e-05
 Reference value :  1.55006e-05
 Reference value :  1.55017e-05
 Reference value :  1.55022e-05
 Reference value :  1.55028e-05
 Reference value :  1.55034e-05
 Reference value :  1.55042e-05
 Reference value :  1.55051e-05
 Reference value :  1.55060e-05
 Reference value :  1.55069e-05
 Reference value :  1.55078e-05
 Reference value :  1.55088e-05
 Reference value :  1.55099e-05
 Reference value :  1.55109e-05
 Reference value :  1.55124e-05
 Reference value :  1.55141e-05
 Reference value :  1.55172e-05
 Reference value :  1.55203e-05
 Reference value :  1.55227e-05
 Reference value :  1.55250e-05
 Reference value :  1.55270e-05
 Reference value :  1.55290e-05
 Reference value :  1.55311e-05
 Reference value :  1.55335e-05
 Reference value :  1.55358e-05
 Reference value :  1.55392e-05
 Reference value :  1.55435e-05
 Reference value :  1.55499e-05
 Reference value :  1.55567e-05
 Reference value :  1.55616e-05
 Reference value :  1.55668e-05
 Reference value :  1.55719e-05
 Reference value :  1.55778e-05
 Reference value :  1.55862e-05
 Reference value :  1.55930e-05
 Reference value :  1.56011e-05
 Reference value :  1.56127e-05
 Reference value :  1.56306e-05
[...]
 Reference value :  2.67760e-04
 Reference value :  2.67762e-04
 Reference value :  2.67765e-04
 Reference value :  2.67768e-04
 Reference value :  2.67773e-04
 Reference value :  2.67782e-04
 Reference value :  2.67800e-04
 Reference value :  2.67835e-04
 Reference value :  2.67905e-04
 Reference value :  2.68000e-04
 Reference value :  2.68000e-04
 Reference value :  2.68000e-04
 Reference value :  2.68000e-04
 Reference value :  2.68000e-04
 Reference value :  2.68000e-04
 Reference value :  2.68000e-04
 Reference value :  2.68000e-04
 Reference value :  2.68000e-04
 Reference value :  2.68000e-04
 Reference value :  2.68000e-04
 Reference value :  2.68001e-04
 Reference value :  2.68001e-04
 Reference value :  2.68002e-04
 Reference value :  2.68002e-04
 Reference value :  2.68003e-04
 Reference value :  2.68004e-04
 Reference value :  2.68004e-04
 Reference value :  2.68005e-04
 Reference value :  2.68006e-04
 Reference value :  2.68007e-04
 Reference value :  2.68008e-04
 Reference value :  2.68010e-04
 Reference value :  2.68011e-04
 Reference value :  2.68012e-04
 Reference value :  2.68014e-04
 Reference value :  2.68015e-04
 Reference value :  2.68017e-04
 Reference value :  2.68019e-04
 Reference value :  2.68021e-04
 Reference value :  2.68024e-04
 Reference value :  2.68032e-04
 Reference value :  2.68044e-04
 Reference value :  2.68069e-04
 Reference value :  2.68118e-04
 Reference value :  2.68217e-04
 Reference value :  2.68250e-04
 Reference value :  2.68250e-04
 Reference value :  2.68250e-04
 Reference value :  2.68250e-04
 Reference value :  2.68250e-04
 Reference value :  2.68250e-04
 Reference value :  2.68250e-04
 Reference value :  2.68250e-04
 Reference value :  2.68250e-04
 Reference value :  2.68250e-04
 Reference value :  2.68250e-04
 Reference value :  2.68250e-04
 Reference value :  2.68250e-04
 Reference value :  2.68251e-04
 Reference value :  2.68251e-04
 Reference value :  2.68252e-04
 Reference value :  2.68252e-04
 Reference value :  2.68253e-04
 Reference value :  2.68254e-04
 Reference value :  2.68255e-04
 Reference value :  2.68256e-04
 Reference value :  2.68257e-04
 Reference value :  2.68258e-04
 Reference value :  2.68259e-04
 Reference value :  2.68260e-04
 Reference value :  2.68261e-04
 Reference value :  2.68262e-04
 Reference value :  2.68264e-04
 Reference value :  2.68266e-04
 Reference value :  2.68269e-04
 Reference value :  2.68273e-04
 Reference value :  2.68278e-04
 Reference value :  2.68288e-04
 Reference value :  2.68304e-04
 Reference value :  2.68337e-04
 Reference value :  2.68402e-04
 Reference value :  2.68500e-04
 Reference value :  2.68500e-04
 Reference value :  2.68500e-04
 Reference value :  2.68500e-04
 Reference value :  2.68500e-04
 Reference value :  2.68500e-04
 Reference value :  2.68500e-04
 Reference value :  2.68500e-04
 Reference value :  2.68500e-04
 Reference value :  2.68500e-04
 Reference value :  2.68500e-04
 Reference value :  2.68501e-04
 Reference value :  2.68501e-04
 Reference value :  2.68502e-04
 Reference value :  2.68502e-04
 Reference value :  2.68503e-04
 Reference value :  2.68504e-04
 Reference value :  2.68504e-04
 Reference value :  2.68505e-04
 Reference value :  2.68506e-04
 Reference value :  2.68507e-04
 Reference value :  2.68508e-04
 Reference value :  2.68509e-04
 Reference value :  2.68510e-04
 Reference value :  2.68511e-04
 Reference value :  2.68512e-04
 Reference value :  2.68514e-04
 Reference value :  2.68515e-04
 Reference value :  2.68517e-04
 Reference value :  2.68519e-04
 Reference value :  2.68521e-04
 Reference value :  2.68522e-04
 Reference value :  2.68524e-04
 Reference value :  2.68525e-04
 Reference value :  2.68527e-04
 Reference value :  2.68528e-04
 Reference value :  2.68530e-04
 Reference value :  2.68532e-04
 Reference value :  2.68534e-04
 Reference value :  2.68537e-04
 Reference value :  2.68539e-04
 Reference value :  2.68541e-04
 Reference value :  2.68543e-04
 Reference value :  2.68546e-04
 Reference value :  2.68550e-04
 Reference value :  2.68555e-04
 Reference value :  2.68562e-04
 Reference value :  2.68573e-04
 Reference value :  2.68589e-04
 Reference value :  2.68604e-04
 Reference value :  2.68624e-04
 Reference value :  2.68651e-04
 Reference value :  2.68707e-04
 Reference value :  2.68750e-04
 Reference value :  2.68750e-04
 Reference value :  2.68750e-04
 Reference value :  2.68750e-04
 Reference value :  2.68750e-04
 Reference value :  2.68750e-04
 Reference value :  2.68750e-04
 Reference value :  2.68750e-04
 Reference value :  2.68750e-04
 Reference value :  2.68750e-04
 Reference value :  2.68750e-04
 Reference value :  2.68750e-04
 Reference value :  2.68750e-04
 Reference value :  2.68751e-04
 Reference value :  2.68751e-04
 Reference value :  2.68752e-04
 Reference value :  2.68752e-04
 Reference value :  2.68753e-04
 Reference value :  2.68754e-04
 Reference value :  2.68755e-04
 Reference value :  2.68756e-04
 Reference value :  2.68757e-04
 Reference value :  2.68758e-04
 Reference value :  2.68759e-04
 Reference value :  2.68761e-04
 Reference value :  2.68763e-04
 Reference value :  2.68765e-04
 Reference value :  2.68769e-04
 Reference value :  2.68774e-04
 Reference value :  2.68785e-04
 Reference value :  2.68803e-04
 Reference value :  2.68836e-04
 Reference value :  2.68903e-04
 Reference value :  2.69000e-04
 Reference value :  2.69000e-04
 Reference value :  2.69000e-04
 Reference value :  2.69000e-04
 Reference value :  2.69000e-04
 Reference value :  2.69000e-04
 Reference value :  2.69000e-04
 Reference value :  2.69000e-04
 Reference value :  2.69000e-04
 Reference value :  2.69000e-04
 Reference value :  2.69000e-04
 Reference value :  2.69001e-04
 Reference value :  2.69001e-04
 Reference value :  2.69002e-04
 Reference value :  2.69002e-04
 Reference value :  2.69003e-04
 Reference value :  2.69004e-04
 Reference value :  2.69004e-04
 Reference value :  2.69005e-04
 Reference value :  2.69006e-04
 Reference value :  2.69007e-04
 Reference value :  2.69009e-04
 Reference value :  2.69010e-04
 Reference value :  2.69011e-04
 Reference value :  2.69013e-04
 Reference value :  2.69015e-04
 Reference value :  2.69016e-04
 Reference value :  2.69018e-04
 Reference value :  2.69020e-04
 Reference value :  2.69022e-04
 Reference value :  2.69025e-04
 Reference value :  2.69031e-04
 Reference value :  2.69041e-04
 Reference value :  2.69060e-04
 Reference value :  2.69097e-04
 Reference value :  2.69170e-04
 Reference value :  2.69250e-04
 Reference value :  2.69250e-04
 Reference value :  2.69250e-04
 Reference value :  2.69250e-04
 Reference value :  2.69250e-04
 Reference value :  2.69250e-04
 Reference value :  2.69250e-04
 Reference value :  2.69250e-04
 Reference value :  2.69250e-04
 Reference value :  2.69250e-04
 Reference value :  2.69250e-04
 Reference value :  2.69250e-04
 Reference value :  2.69250e-04
 Reference value :  2.69251e-04
 Reference value :  2.69251e-04
 Reference value :  2.69252e-04
 Reference value :  2.69252e-04
 Reference value :  2.69253e-04
 Reference value :  2.69254e-04
 Reference value :  2.69255e-04
 Reference value :  2.69256e-04
 Reference value :  2.69257e-04
 Reference value :  2.69258e-04
 Reference value :  2.69259e-04
 Reference value :  2.69260e-04
 Reference value :  2.69261e-04
 Reference value :  2.69264e-04
 Reference value :  2.69267e-04
 Reference value :  2.69271e-04
 Reference value :  2.69277e-04
 Reference value :  2.69290e-04
 Reference value :  2.69314e-04
 Reference value :  2.69364e-04
 Reference value :  2.69463e-04
 Reference value :  2.69500e-04
 Reference value :  2.69500e-04
 Reference value :  2.69500e-04
 Reference value :  2.69500e-04
 Reference value :  2.69500e-04
 Reference value :  2.69500e-04
 Reference value :  2.69500e-04
 Reference value :  2.69500e-04
 Reference value :  2.69500e-04
 Reference value :  2.69500e-04
 Reference value :  2.69500e-04
 Reference value :  2.69501e-04
 Reference value :  2.69501e-04
 Reference value :  2.69502e-04
 Reference value :  2.69502e-04
 Reference value :  2.69503e-04
 Reference value :  2.69504e-04
 Reference value :  2.69504e-04
 Reference value :  2.69505e-04
 Reference value :  2.69506e-04
 Reference value :  2.69507e-04
 Reference value :  2.69508e-04
 Reference value :  2.69509e-04
 Reference value :  2.69510e-04
 Reference value :  2.69511e-04
 Reference value :  2.69512e-04
 Reference value :  2.69514e-04
 Reference value :  2.69517e-04
 Reference value :  2.69520e-04
 Reference value :  2.69523e-04
 Reference value :  2.69525e-04
 Reference value :  2.69527e-04
 Reference value :  2.69529e-04
 Reference value :  2.69531e-04
 Reference value :  2.69533e-04
 Reference value :  2.69535e-04
 Reference value :  2.69539e-04
 Reference value :  2.69543e-04
 Reference value :  2.69550e-04
 Reference value :  2.69559e-04
 Reference value :  2.69568e-04
 Reference value :  2.69574e-04
 Reference value :  2.69581e-04
 Reference value :  2.69588e-04
 Reference value :  2.69596e-04
 Reference value :  2.69607e-04
 Reference value :  2.69619e-04
 Reference value :  2.69635e-04
 Reference value :  2.69657e-04
 Reference value :  2.69688e-04
 Reference value :  2.69713e-04
 Reference value :  2.69726e-04
 Reference value :  2.69740e-04
 Reference value :  2.69750e-04
 Reference value :  2.69750e-04
 Reference value :  2.69750e-04
 Reference value :  2.69750e-04
 Reference value :  2.69750e-04
 Reference value :  2.69750e-04
 Reference value :  2.69750e-04
 Reference value :  2.69750e-04
 Reference value :  2.69750e-04
 Reference value :  2.69750e-04
 Reference value :  2.69750e-04
 Reference value :  2.69750e-04
 Reference value :  2.69750e-04
 Reference value :  2.69751e-04
 Reference value :  2.69751e-04
 Reference value :  2.69752e-04
 Reference value :  2.69752e-04
 Reference value :  2.69753e-04
 Reference value :  2.69754e-04
 Reference value :  2.69755e-04
 Reference value :  2.69756e-04
 Reference value :  2.69757e-04
 Reference value :  2.69758e-04
 Reference value :  2.69759e-04
 Reference value :  2.69761e-04
 Reference value :  2.69763e-04
 Reference value :  2.69765e-04
 Reference value :  2.69769e-04
 Reference value :  2.69774e-04
 Reference value :  2.69785e-04
 Reference value :  2.69803e-04
 Reference value :  2.69836e-04
 Reference value :  2.69903e-04
 Reference value :  2.69998e-04
 Reference value :  2.70000e-04
 Reference value :  2.70000e-04
 Reference value :  2.70000e-04
 Reference value :  2.70000e-04
 Reference value :  2.70000e-04
 Reference value :  2.70000e-04
 Reference value :  2.70000e-04
 Reference value :  2.70000e-04
 Reference value :  2.70000e-04
 Reference value :  2.70000e-04
 Reference value :  2.70000e-04
 Reference value :  2.70001e-04
 Reference value :  2.70001e-04
 Reference value :  2.70002e-04
 Reference value :  2.70002e-04
 Reference value :  2.70003e-04
 Reference value :  2.70004e-04
 Reference value :  2.70004e-04
 Reference value :  2.70005e-04
 Reference value :  2.70006e-04
 Reference value :  2.70007e-04
 Reference value :  2.70008e-04
 Reference value :  2.70010e-04
 Reference value :  2.70011e-04
 Reference value :  2.70013e-04
 Reference value :  2.70014e-04
 Reference value :  2.70016e-04
 Reference value :  2.70017e-04
 Reference value :  2.70019e-04
 Reference value :  2.70021e-04
 Reference value :  2.70025e-04
 Reference value :  2.70030e-04
 Reference value :  2.70042e-04
 Reference value :  2.70064e-04
 Reference value :  2.70109e-04
 Reference value :  2.70200e-04
 Reference value :  2.70250e-04
 Reference value :  2.70250e-04
 Reference value :  2.70250e-04
 Reference value :  2.70250e-04
 Reference value :  2.70250e-04
 Reference value :  2.70250e-04
 Reference value :  2.70250e-04
 Reference value :  2.70250e-04
 Reference value :  2.70250e-04
 Reference value :  2.70250e-04
 Reference value :  2.70250e-04
 Reference value :  2.70250e-04
 Reference value :  2.70250e-04
 Reference value :  2.70251e-04
 Reference value :  2.70251e-04
 Reference value :  2.70252e-04
 Reference value :  2.70252e-04
 Reference value :  2.70253e-04
 Reference value :  2.70254e-04
 Reference value :  2.70255e-04
 Reference value :  2.70256e-04
 Reference value :  2.70257e-04
 Reference value :  2.70258e-04
 Reference value :  2.70259e-04
 Reference value :  2.70260e-04
 Reference value :  2.70261e-04
 Reference value :  2.70264e-04
 Reference value :  2.70267e-04
 Reference value :  2.70271e-04
 Reference value :  2.70277e-04
 Reference value :  2.70289e-04
 Reference value :  2.70313e-04
 Reference value :  2.70362e-04
 Reference value :  2.70459e-04
 Reference value :  2.70500e-04
 Reference value :  2.70500e-04
 Reference value :  2.70500e-04
 Reference value :  2.70500e-04
 Reference value :  2.70500e-04
 Reference value :  2.70500e-04
 Reference value :  2.70500e-04
 Reference value :  2.70500e-04
 Reference value :  2.70500e-04
 Reference value :  2.70500e-04
 Reference value :  2.70500e-04
 Reference value :  2.70501e-04
 Reference value :  2.70501e-04
 Reference value :  2.70502e-04
 Reference value :  2.70502e-04
 Reference value :  2.70503e-04
 Reference value :  2.70504e-04
 Reference value :  2.70504e-04
 Reference value :  2.70505e-04
 Reference value :  2.70506e-04
 Reference value :  2.70507e-04
 Reference value :  2.70508e-04
 Reference value :  2.70509e-04
 Reference value :  2.70510e-04
 Reference value :  2.70511e-04
 Reference value :  2.70512e-04
 Reference value :  2.70514e-04
 Reference value :  2.70517e-04
 Reference value :  2.70520e-04
 Reference value :  2.70523e-04
 Reference value :  2.70525e-04
 Reference value :  2.70527e-04
 Reference value :  2.70529e-04
 Reference value :  2.70532e-04
 Reference value :  2.70534e-04
 Reference value :  2.70536e-04
 Reference value :  2.70539e-04
 Reference value :  2.70544e-04
 Reference value :  2.70549e-04
 Reference value :  2.70554e-04
 Reference value :  2.70562e-04
 Reference value :  2.70572e-04
 Reference value :  2.70579e-04
 Reference value :  2.70586e-04
 Reference value :  2.70596e-04
 Reference value :  2.70606e-04
 Reference value :  2.70622e-04
 Reference value :  2.70642e-04
 Reference value :  2.70671e-04
 Reference value :  2.70718e-04
 Reference value :  2.70750e-04
 Reference value :  2.70750e-04
 Reference value :  2.70750e-04
 Reference value :  2.70750e-04
 Reference value :  2.70750e-04
 Reference value :  2.70750e-04
 Reference value :  2.70750e-04
 Reference value :  2.70750e-04
 Reference value :  2.70750e-04
 Reference value :  2.70750e-04
 Reference value :  2.70750e-04
 Reference value :  2.70750e-04
 Reference value :  2.70750e-04
 Reference value :  2.70751e-04
 Reference value :  2.70751e-04
 Reference value :  2.70752e-04
 Reference value :  2.70752e-04
 Reference value :  2.70753e-04
 Reference value :  2.70754e-04
 Reference value :  2.70755e-04
 Reference value :  2.70756e-04
 Reference value :  2.70757e-04
 Reference value :  2.70758e-04
 Reference value :  2.70759e-04
 Reference value :  2.70760e-04
 Reference value :  2.70762e-04
 Reference value :  2.70765e-04
 Reference value :  2.70768e-04
 Reference value :  2.70773e-04
 Reference value :  2.70781e-04
 Reference value :  2.70798e-04
 Reference value :  2.70831e-04
 Reference value :  2.70898e-04
 Reference value :  2.70975e-04
 Reference value :  2.71000e-04
 Reference value :  2.71000e-04
 Reference value :  2.71000e-04
 Reference value :  2.71000e-04
 Reference value :  2.71000e-04
 Reference value :  2.71000e-04
 Reference value :  2.71000e-04
 Reference value :  2.71000e-04
 Reference value :  2.71000e-04
 Reference value :  2.71000e-04
 Reference value :  2.71000e-04
 Reference value :  2.71001e-04
 Reference value :  2.71001e-04
 Reference value :  2.71002e-04
 Reference value :  2.71002e-04
 Reference value :  2.71003e-04
 Reference value :  2.71004e-04
 Reference value :  2.71004e-04
 Reference value :  2.71005e-04
 Reference value :  2.71006e-04
 Reference value :  2.71007e-04
 Reference value :  2.71008e-04
 Reference value :  2.71010e-04
 Reference value :  2.71012e-04
 Reference value :  2.71013e-04
 Reference value :  2.71015e-04
 Reference value :  2.71016e-04
 Reference value :  2.71018e-04
 Reference value :  2.71019e-04
 Reference value :  2.71021e-04
 Reference value :  2.71025e-04
 Reference value :  2.71030e-04
 Reference value :  2.71038e-04
 Reference value :  2.71050e-04
 Reference value :  2.71073e-04
 Reference value :  2.71120e-04
 Reference value :  2.71164e-04
 Reference value :  2.71211e-04
 Reference value :  2.71250e-04
 Reference value :  2.71250e-04
 Reference value :  2.71250e-04
 Reference value :  2.71250e-04
 Reference value :  2.71250e-04
 Reference value :  2.71250e-04
 Reference value :  2.71250e-04
 Reference value :  2.71250e-04
 Reference value :  2.71250e-04
 Reference value :  2.71250e-04
 Reference value :  2.71250e-04
 Reference value :  2.71250e-04
 Reference value :  2.71250e-04
 Reference value :  2.71251e-04
 Reference value :  2.71251e-04
 Reference value :  2.71252e-04
 Reference value :  2.71252e-04
 Reference value :  2.71253e-04
 Reference value :  2.71254e-04
 Reference value :  2.71255e-04
 Reference value :  2.71256e-04
 Reference value :  2.71257e-04
 Reference value :  2.71258e-04
 Reference value :  2.71259e-04
 Reference value :  2.71260e-04
 Reference value :  2.71261e-04
 Reference value :  2.71264e-04
 Reference value :  2.71266e-04
 Reference value :  2.71271e-04
 Reference value :  2.71277e-04
 Reference value :  2.71289e-04
 Reference value :  2.71314e-04
 Reference value :  2.71362e-04
 Reference value :  2.71460e-04
 Reference value :  2.71500e-04
 Reference value :  2.71500e-04
 Reference value :  2.71500e-04
 Reference value :  2.71500e-04
 Reference value :  2.71500e-04
 Reference value :  2.71500e-04
 Reference value :  2.71500e-04
 Reference value :  2.71500e-04
 Reference value :  2.71500e-04
 Reference value :  2.71500e-04
 Reference value :  2.71500e-04
 Reference value :  2.71501e-04
 Reference value :  2.71501e-04
 Reference value :  2.71502e-04
 Reference value :  2.71502e-04
 Reference value :  2.71503e-04
 Reference value :  2.71504e-04
 Reference value :  2.71504e-04
 Reference value :  2.71505e-04
 Reference value :  2.71506e-04
 Reference value :  2.71507e-04
 Reference value :  2.71508e-04
 Reference value :  2.71509e-04
 Reference value :  2.71510e-04
 Reference value :  2.71511e-04
 Reference value :  2.71512e-04
 Reference value :  2.71514e-04
 Reference value :  2.71517e-04
 Reference value :  2.71520e-04
 Reference value :  2.71523e-04
 Reference value :  2.71525e-04
 Reference value :  2.71528e-04
 Reference value :  2.71531e-04
 Reference value :  2.71536e-04
 Reference value :  2.71542e-04
 Reference value :  2.71552e-04
 Reference value :  2.71568e-04
 Reference value :  2.71595e-04
 Reference value :  2.71647e-04
 Reference value :  2.71749e-04
 Reference value :  2.71750e-04
 Reference value :  2.71750e-04
 Reference value :  2.71750e-04
 Reference value :  2.71750e-04
 Reference value :  2.71750e-04
 Reference value :  2.71750e-04
 Reference value :  2.71750e-04
 Reference value :  2.71750e-04
 Reference value :  2.71750e-04
 Reference value :  2.71750e-04
 Reference value :  2.71750e-04
 Reference value :  2.71750e-04
 Reference value :  2.71750e-04
 Reference value :  2.71751e-04
 Reference value :  2.71751e-04
 Reference value :  2.71752e-04
 Reference value :  2.71752e-04
 Reference value :  2.71753e-04
 Reference value :  2.71754e-04
 Reference value :  2.71755e-04
 Reference value :  2.71756e-04
 Reference value :  2.71758e-04
 Reference value :  2.71759e-04
 Reference value :  2.71761e-04
 Reference value :  2.71763e-04
 Reference value :  2.71766e-04
 Reference value :  2.71770e-04
 Reference value :  2.71776e-04
 Reference value :  2.71788e-04
 Reference value :  2.71811e-04
 Reference value :  2.71857e-04
 Reference value :  2.71950e-04
 Reference value :  2.72000e-04
No. of Data Rows : 41974
ngspice-44 done
