
Note: Compatibility modes selected: hs a


Circuit: ** sch_path: /home/audrey/cace/sar-adc-using-sky130-pdk/runs/run_2025-09-07_19-22-36/parameters/sampling_rate/run_4/sampling_rate.sch

option SCALE: Scale is set to 1e-06 for instance and model parameters
option SCALE: Scale is set to 1e-06 for instance and model parameters
option SCALE: Scale is set to 1e-06 for instance and model parameters
option SCALE: Scale is set to 1e-06 for instance and model parameters
Doing analysis at TEMP = 27.000000 and TNOM = 27.000000

Using KLU as Direct Linear Solver
Operating point simulation skipped by 'uic',
  now using transient initial conditions.
 Reference value :  1.00000e-12
 Reference value :  1.02795e-12
 Reference value :  1.08385e-12
 Reference value :  1.19565e-12
 Reference value :  1.41924e-12
 Reference value :  1.68369e-12
 Reference value :  2.21258e-12
 Reference value :  4.27818e-12
 Reference value :  6.17909e-12
 Reference value :  9.11008e-12
 Reference value :  1.95637e-11
 Reference value :  5.60183e-11
 Reference value :  1.00000e-10
 Reference value :  1.04861e-10
 Reference value :  1.34024e-10
 Reference value :  2.50679e-10
 Reference value :  4.06218e-10
 Reference value :  6.61337e-10
 Reference value :  9.45178e-10
 Reference value :  1.35402e-09
 Reference value :  1.87874e-09
 Reference value :  2.41370e-09
 Reference value :  3.21390e-09
 Reference value :  4.11680e-09
 Reference value :  5.21762e-09
 Reference value :  6.31409e-09
 Reference value :  7.08329e-09
 Reference value :  7.83051e-09
 Reference value :  8.58012e-09
 Reference value :  1.04988e-08
 Reference value :  1.14268e-08
 Reference value :  1.22475e-08
 Reference value :  1.30984e-08
 Reference value :  1.52125e-08
 Reference value :  1.68715e-08
 Reference value :  2.37780e-08
 Reference value :  2.82874e-08
 Reference value :  3.82151e-08
 Reference value :  5.15777e-08
 Reference value :  8.42380e-08
 Reference value :  1.18735e-07
 Reference value :  2.50100e-07
 Reference value :  2.50130e-07
 Reference value :  2.50170e-07
 Reference value :  2.50208e-07
 Reference value :  2.50254e-07
 Reference value :  2.50407e-07
 Reference value :  2.50731e-07
 Reference value :  2.51035e-07
 Reference value :  2.51911e-07
 Reference value :  2.52373e-07
 Reference value :  2.53039e-07
 Reference value :  2.53667e-07
 Reference value :  2.54221e-07
 Reference value :  2.55422e-07
 Reference value :  2.56165e-07
 Reference value :  2.58434e-07
 Reference value :  2.62621e-07
 Reference value :  2.72381e-07
 Reference value :  3.04298e-07
 Reference value :  4.22462e-07
 Reference value :  5.00010e-07
 Reference value :  5.00070e-07
 Reference value :  5.00108e-07
 Reference value :  5.00156e-07
 Reference value :  5.00220e-07
 Reference value :  5.00345e-07
 Reference value :  5.00518e-07
 Reference value :  5.00864e-07
 Reference value :  5.01310e-07
 Reference value :  5.01817e-07
 Reference value :  5.02312e-07
 Reference value :  5.02776e-07
 Reference value :  5.03345e-07
 Reference value :  5.03938e-07
 Reference value :  5.04596e-07
 Reference value :  5.06435e-07
 Reference value :  5.07767e-07
 Reference value :  5.08986e-07
 Reference value :  5.10313e-07
 Reference value :  5.11668e-07
 Reference value :  5.13194e-07
 Reference value :  5.14670e-07
 Reference value :  5.18439e-07
 Reference value :  5.20955e-07
 Reference value :  5.30834e-07
 Reference value :  5.59454e-07
 Reference value :  6.56843e-07
 Reference value :  7.50110e-07
 Reference value :  7.50130e-07
 Reference value :  7.50170e-07
 Reference value :  7.50200e-07
 Reference value :  7.50208e-07
 Reference value :  7.50224e-07
 Reference value :  7.50256e-07
 Reference value :  7.50320e-07
 Reference value :  7.50698e-07
 Reference value :  7.51020e-07
 Reference value :  7.51567e-07
 Reference value :  7.52584e-07
 Reference value :  7.53359e-07
 Reference value :  7.53869e-07
 Reference value :  7.54453e-07
 Reference value :  7.55026e-07
 Reference value :  7.55631e-07
 Reference value :  7.56458e-07
 Reference value :  7.57324e-07
 Reference value :  7.61352e-07
 Reference value :  7.71924e-07
 Reference value :  8.13734e-07
 Reference value :  8.69481e-07
 Reference value :  9.80974e-07
 Reference value :  1.00000e-06
 Reference value :  1.00003e-06
 Reference value :  1.00007e-06
 Reference value :  1.00011e-06
 Reference value :  1.00012e-06
 Reference value :  1.00016e-06
 Reference value :  1.00022e-06
 Reference value :  1.00034e-06
 Reference value :  1.00052e-06
 Reference value :  1.00086e-06
 Reference value :  1.00131e-06
 Reference value :  1.00182e-06
 Reference value :  1.00231e-06
 Reference value :  1.00278e-06
 Reference value :  1.00332e-06
 Reference value :  1.00390e-06
 Reference value :  1.00449e-06
 Reference value :  1.00521e-06
 Reference value :  1.00584e-06
 Reference value :  1.00651e-06
 Reference value :  1.00748e-06
 Reference value :  1.00837e-06
 Reference value :  1.00976e-06
 Reference value :  1.01133e-06
 Reference value :  1.01279e-06
 Reference value :  1.01390e-06
 Reference value :  1.01612e-06
 Reference value :  1.01716e-06
 Reference value :  1.01825e-06
 Reference value :  1.01946e-06
 Reference value :  1.02139e-06
 Reference value :  1.02662e-06
 Reference value :  1.03196e-06
 Reference value :  1.05515e-06
 Reference value :  1.08275e-06
 Reference value :  1.21648e-06
 Reference value :  1.25010e-06
 Reference value :  1.25011e-06
 Reference value :  1.25013e-06
 Reference value :  1.25017e-06
 Reference value :  1.25020e-06
 Reference value :  1.25021e-06
 Reference value :  1.25022e-06
 Reference value :  1.25032e-06
 Reference value :  1.25070e-06
 Reference value :  1.25102e-06
 Reference value :  1.25151e-06
 Reference value :  1.25252e-06
 Reference value :  1.25327e-06
 Reference value :  1.25379e-06
 Reference value :  1.25440e-06
 Reference value :  1.25498e-06
 Reference value :  1.25647e-06
 Reference value :  1.25931e-06
 Reference value :  1.26193e-06
 Reference value :  1.26544e-06
 Reference value :  1.27247e-06
 Reference value :  1.28653e-06
 Reference value :  1.37088e-06
 Reference value :  1.48335e-06
 Reference value :  1.50001e-06
 Reference value :  1.50007e-06
 Reference value :  1.50010e-06
 Reference value :  1.50012e-06
 Reference value :  1.50016e-06
 Reference value :  1.50034e-06
 Reference value :  1.50052e-06
 Reference value :  1.50086e-06
 Reference value :  1.50131e-06
 Reference value :  1.50182e-06
 Reference value :  1.50231e-06
 Reference value :  1.50333e-06
 Reference value :  1.50391e-06
 Reference value :  1.50455e-06
 Reference value :  1.50550e-06
 Reference value :  1.50719e-06
 Reference value :  1.50806e-06
 Reference value :  1.50889e-06
 Reference value :  1.50982e-06
 Reference value :  1.51087e-06
 Reference value :  1.51426e-06
 Reference value :  1.54562e-06
 Reference value :  1.65303e-06
 Reference value :  1.75011e-06
 Reference value :  1.75017e-06
 Reference value :  1.75021e-06
 Reference value :  1.75026e-06
 Reference value :  1.75032e-06
 Reference value :  1.75070e-06
 Reference value :  1.75101e-06
 Reference value :  1.75156e-06
 Reference value :  1.75205e-06
 Reference value :  1.75258e-06
 Reference value :  1.75335e-06
 Reference value :  1.75386e-06
 Reference value :  1.75500e-06
 Reference value :  1.75560e-06
 Reference value :  1.75646e-06
 Reference value :  1.75919e-06
 Reference value :  1.76519e-06
 Reference value :  1.78688e-06
 Reference value :  1.87365e-06
 Reference value :  1.98935e-06
 Reference value :  2.00000e-06
 Reference value :  2.00001e-06
 Reference value :  2.00003e-06
 Reference value :  2.00010e-06
 Reference value :  2.00012e-06
 Reference value :  2.00016e-06
 Reference value :  2.00034e-06
 Reference value :  2.00052e-06
 Reference value :  2.00086e-06
 Reference value :  2.00131e-06
 Reference value :  2.00182e-06
 Reference value :  2.00278e-06
 Reference value :  2.00332e-06
 Reference value :  2.00390e-06
 Reference value :  2.00449e-06
 Reference value :  2.00521e-06
 Reference value :  2.00584e-06
 Reference value :  2.00650e-06
 Reference value :  2.00747e-06
 Reference value :  2.00836e-06
 Reference value :  2.00975e-06
 Reference value :  2.01132e-06
 Reference value :  2.01278e-06
 Reference value :  2.01389e-06
 Reference value :  2.01496e-06
 Reference value :  2.01611e-06
 Reference value :  2.01716e-06
 Reference value :  2.01825e-06
 Reference value :  2.01946e-06
 Reference value :  2.02138e-06
 Reference value :  2.02312e-06
 Reference value :  2.02615e-06
 Reference value :  2.02910e-06
 Reference value :  2.03215e-06
 Reference value :  2.03462e-06
 Reference value :  2.03773e-06
 Reference value :  2.04134e-06
 Reference value :  2.04416e-06
 Reference value :  2.04718e-06
 Reference value :  2.05165e-06
 Reference value :  2.06157e-06
 Reference value :  2.06750e-06
 Reference value :  2.08082e-06
 Reference value :  2.09414e-06
 Reference value :  2.14293e-06
 Reference value :  2.20194e-06
 Reference value :  2.25011e-06
 Reference value :  2.25013e-06
 Reference value :  2.25017e-06
 Reference value :  2.25020e-06
 Reference value :  2.25021e-06
 Reference value :  2.25026e-06
 Reference value :  2.25032e-06
 Reference value :  2.25045e-06
 Reference value :  2.25070e-06
 Reference value :  2.25101e-06
 Reference value :  2.25151e-06
 Reference value :  2.25203e-06
 Reference value :  2.25252e-06
 Reference value :  2.25326e-06
 Reference value :  2.25376e-06
 Reference value :  2.25433e-06
 Reference value :  2.25495e-06
 Reference value :  2.25559e-06
 Reference value :  2.25641e-06
 Reference value :  2.25933e-06
 Reference value :  2.26218e-06
 Reference value :  2.26547e-06
 Reference value :  2.27205e-06
 Reference value :  2.28520e-06
 Reference value :  2.36415e-06
 Reference value :  2.50000e-06
 Reference value :  2.50001e-06
 Reference value :  2.50003e-06
 Reference value :  2.50007e-06
 Reference value :  2.50010e-06
 Reference value :  2.50011e-06
 Reference value :  2.50016e-06
 Reference value :  2.50022e-06
 Reference value :  2.50034e-06
 Reference value :  2.50052e-06
 Reference value :  2.50086e-06
 Reference value :  2.50131e-06
 Reference value :  2.50175e-06
 Reference value :  2.50223e-06
 Reference value :  2.50268e-06
 Reference value :  2.50322e-06
 Reference value :  2.50379e-06
 Reference value :  2.50442e-06
 Reference value :  2.50521e-06
 Reference value :  2.50604e-06
 Reference value :  2.50673e-06
 Reference value :  2.50746e-06
 Reference value :  2.50840e-06
 Reference value :  2.50937e-06
 Reference value :  2.51032e-06
 Reference value :  2.51146e-06
 Reference value :  2.51516e-06
 Reference value :  2.52505e-06
 Reference value :  2.53625e-06
 Reference value :  2.55541e-06
 Reference value :  2.67036e-06
 Reference value :  2.75010e-06
 Reference value :  2.75011e-06
 Reference value :  2.75013e-06
 Reference value :  2.75017e-06
 Reference value :  2.75020e-06
 Reference value :  2.75021e-06
 Reference value :  2.75026e-06
 Reference value :  2.75045e-06
 Reference value :  2.75070e-06
 Reference value :  2.75101e-06
 Reference value :  2.75150e-06
 Reference value :  2.75202e-06
 Reference value :  2.75252e-06
 Reference value :  2.75326e-06
 Reference value :  2.75378e-06
 Reference value :  2.75437e-06
 Reference value :  2.75490e-06
 Reference value :  2.75549e-06
 Reference value :  2.75628e-06
 Reference value :  2.75794e-06
 Reference value :  2.75894e-06
 Reference value :  2.76167e-06
 Reference value :  2.76713e-06
 Reference value :  2.77315e-06
 Reference value :  2.79615e-06
 Reference value :  2.87062e-06
 Reference value :  2.96668e-06
 Reference value :  3.00001e-06
 Reference value :  3.00007e-06
 Reference value :  3.00010e-06
 Reference value :  3.00011e-06
 Reference value :  3.00016e-06
 Reference value :  3.00034e-06
 Reference value :  3.00086e-06
 Reference value :  3.00131e-06
 Reference value :  3.00182e-06
 Reference value :  3.00231e-06
 Reference value :  3.00278e-06
 Reference value :  3.00334e-06
 Reference value :  3.00393e-06
 Reference value :  3.00457e-06
 Reference value :  3.00575e-06
 Reference value :  3.00641e-06
 Reference value :  3.00725e-06
 Reference value :  3.00817e-06
 Reference value :  3.00935e-06
 Reference value :  3.01043e-06
 Reference value :  3.01146e-06
 Reference value :  3.01263e-06
 Reference value :  3.01351e-06
 Reference value :  3.01438e-06
 Reference value :  3.01536e-06
 Reference value :  3.01638e-06
 Reference value :  3.01738e-06
 Reference value :  3.01857e-06
 Reference value :  3.01981e-06
 Reference value :  3.02167e-06
 Reference value :  3.02811e-06
 Reference value :  3.05072e-06
 Reference value :  3.07390e-06
 Reference value :  3.09509e-06
 Reference value :  3.11242e-06
 Reference value :  3.13375e-06
 Reference value :  3.17091e-06
 Reference value :  3.18234e-06
 Reference value :  3.20447e-06
 Reference value :  3.21634e-06
 Reference value :  3.25010e-06
 Reference value :  3.25013e-06
 Reference value :  3.25017e-06
 Reference value :  3.25020e-06
 Reference value :  3.25021e-06
 Reference value :  3.25026e-06
 Reference value :  3.25032e-06
 Reference value :  3.25045e-06
 Reference value :  3.25070e-06
 Reference value :  3.25101e-06
 Reference value :  3.25150e-06
 Reference value :  3.25202e-06
 Reference value :  3.25251e-06
 Reference value :  3.25326e-06
 Reference value :  3.25378e-06
 Reference value :  3.25436e-06
 Reference value :  3.25495e-06
 Reference value :  3.25557e-06
 Reference value :  3.25641e-06
 Reference value :  3.25770e-06
 Reference value :  3.25921e-06
 Reference value :  3.26520e-06
 Reference value :  3.28528e-06
 Reference value :  3.31206e-06
 Reference value :  3.36561e-06
 Reference value :  3.47272e-06
 Reference value :  3.50000e-06
 Reference value :  3.50001e-06
 Reference value :  3.50003e-06
 Reference value :  3.50010e-06
 Reference value :  3.50011e-06
 Reference value :  3.50012e-06
 Reference value :  3.50022e-06
 Reference value :  3.50034e-06
 Reference value :  3.50052e-06
 Reference value :  3.50086e-06
 Reference value :  3.50131e-06
 Reference value :  3.50175e-06
 Reference value :  3.50223e-06
 Reference value :  3.50268e-06
 Reference value :  3.50322e-06
 Reference value :  3.50379e-06
 Reference value :  3.50442e-06
 Reference value :  3.50521e-06
 Reference value :  3.50604e-06
 Reference value :  3.50673e-06
 Reference value :  3.50746e-06
 Reference value :  3.50839e-06
 Reference value :  3.50937e-06
 Reference value :  3.51145e-06
 Reference value :  3.51515e-06
 Reference value :  3.51863e-06
 Reference value :  3.52498e-06
 Reference value :  3.55502e-06
 Reference value :  3.66868e-06
 Reference value :  3.75010e-06
 Reference value :  3.75011e-06
 Reference value :  3.75013e-06
 Reference value :  3.75020e-06
 Reference value :  3.75021e-06
 Reference value :  3.75022e-06
 Reference value :  3.75032e-06
 Reference value :  3.75045e-06
 Reference value :  3.75070e-06
 Reference value :  3.75101e-06
 Reference value :  3.75150e-06
 Reference value :  3.75202e-06
 Reference value :  3.75251e-06
 Reference value :  3.75326e-06
 Reference value :  3.75377e-06
 Reference value :  3.75437e-06
 Reference value :  3.75490e-06
 Reference value :  3.75548e-06
 Reference value :  3.75627e-06
 Reference value :  3.75793e-06
 Reference value :  3.75893e-06
 Reference value :  3.76166e-06
 Reference value :  3.76709e-06
 Reference value :  3.78156e-06
 Reference value :  3.82015e-06
 Reference value :  3.96282e-06
 Reference value :  4.00001e-06
 Reference value :  4.00003e-06
 Reference value :  4.00010e-06
 Reference value :  4.00012e-06
 Reference value :  4.00016e-06
 Reference value :  4.00034e-06
 Reference value :  4.00086e-06
 Reference value :  4.00131e-06
 Reference value :  4.00182e-06
 Reference value :  4.00278e-06
 Reference value :  4.00334e-06
 Reference value :  4.00393e-06
 Reference value :  4.00457e-06
 Reference value :  4.00518e-06
 Reference value :  4.00575e-06
 Reference value :  4.00641e-06
 Reference value :  4.00725e-06
 Reference value :  4.00935e-06
 Reference value :  4.01043e-06
 Reference value :  4.01146e-06
 Reference value :  4.01263e-06
 Reference value :  4.01351e-06
 Reference value :  4.01437e-06
 Reference value :  4.01535e-06
 Reference value :  4.01637e-06
 Reference value :  4.01737e-06
 Reference value :  4.01856e-06
 Reference value :  4.01979e-06
 Reference value :  4.02165e-06
 Reference value :  4.02800e-06
 Reference value :  4.04406e-06
 Reference value :  4.05149e-06
 Reference value :  4.05651e-06
 Reference value :  4.06106e-06
 Reference value :  4.06612e-06
 Reference value :  4.07830e-06
 Reference value :  4.09751e-06
 Reference value :  4.13069e-06
 Reference value :  4.19634e-06
 Reference value :  4.22994e-06
 Reference value :  4.25010e-06
 Reference value :  4.25011e-06
 Reference value :  4.25013e-06
 Reference value :  4.25017e-06
 Reference value :  4.25021e-06
 Reference value :  4.25022e-06
 Reference value :  4.25032e-06
 Reference value :  4.25070e-06
 Reference value :  4.25101e-06
 Reference value :  4.25150e-06
 Reference value :  4.25251e-06
 Reference value :  4.25325e-06
 Reference value :  4.25377e-06
 Reference value :  4.25434e-06
 Reference value :  4.25494e-06
 Reference value :  4.25639e-06
 Reference value :  4.25774e-06
 Reference value :  4.25921e-06
 Reference value :  4.26121e-06
 Reference value :  4.26345e-06
 Reference value :  4.26628e-06
 Reference value :  4.27516e-06
 Reference value :  4.28509e-06
 Reference value :  4.30073e-06
 Reference value :  4.33107e-06
 Reference value :  4.34546e-06
 Reference value :  4.39901e-06
 Reference value :  4.50000e-06
 Reference value :  4.50003e-06
 Reference value :  4.50007e-06
 Reference value :  4.50010e-06
 Reference value :  4.50012e-06
 Reference value :  4.50022e-06
 Reference value :  4.50052e-06
 Reference value :  4.50086e-06
 Reference value :  4.50131e-06
 Reference value :  4.50175e-06
 Reference value :  4.50223e-06
 Reference value :  4.50268e-06
 Reference value :  4.50322e-06
 Reference value :  4.50379e-06
 Reference value :  4.50442e-06
 Reference value :  4.50522e-06
 Reference value :  4.50604e-06
 Reference value :  4.50673e-06
 Reference value :  4.50746e-06
 Reference value :  4.50840e-06
 Reference value :  4.50937e-06
 Reference value :  4.51032e-06
 Reference value :  4.51146e-06
 Reference value :  4.51861e-06
 Reference value :  4.53587e-06
 Reference value :  4.59195e-06
 Reference value :  4.66671e-06
 Reference value :  4.75011e-06
 Reference value :  4.75017e-06
 Reference value :  4.75020e-06
 Reference value :  4.75022e-06
 Reference value :  4.75032e-06
 Reference value :  4.75045e-06
 Reference value :  4.75070e-06
 Reference value :  4.75101e-06
 Reference value :  4.75150e-06
 Reference value :  4.75202e-06
 Reference value :  4.75251e-06
 Reference value :  4.75325e-06
 Reference value :  4.75377e-06
 Reference value :  4.75490e-06
 Reference value :  4.75548e-06
 Reference value :  4.75627e-06
 Reference value :  4.75793e-06
 Reference value :  4.75893e-06
 Reference value :  4.76165e-06
 Reference value :  4.76707e-06
 Reference value :  4.77307e-06
 Reference value :  4.79583e-06
 Reference value :  4.81971e-06
 Reference value :  4.96070e-06
 Reference value :  5.00000e-06
 Reference value :  5.00001e-06
 Reference value :  5.00003e-06
 Reference value :  5.00007e-06
 Reference value :  5.00010e-06
 Reference value :  5.00011e-06
 Reference value :  5.00012e-06
 Reference value :  5.00016e-06
 Reference value :  5.00022e-06
 Reference value :  5.00034e-06
 Reference value :  5.00052e-06
 Reference value :  5.00086e-06
 Reference value :  5.00131e-06
 Reference value :  5.00182e-06
 Reference value :  5.00231e-06
 Reference value :  5.00278e-06
 Reference value :  5.00334e-06
 Reference value :  5.00393e-06
 Reference value :  5.00457e-06
 Reference value :  5.00518e-06
 Reference value :  5.00575e-06
 Reference value :  5.00641e-06
 Reference value :  5.00725e-06
 Reference value :  5.00817e-06
 Reference value :  5.00935e-06
 Reference value :  5.01043e-06
 Reference value :  5.01146e-06
 Reference value :  5.01263e-06
 Reference value :  5.01350e-06
 Reference value :  5.01435e-06
 Reference value :  5.01545e-06
 Reference value :  5.01645e-06
 Reference value :  5.01752e-06
 Reference value :  5.01875e-06
 Reference value :  5.02005e-06
 Reference value :  5.02198e-06
 Reference value :  5.02452e-06
 Reference value :  5.02785e-06
 Reference value :  5.02984e-06
 Reference value :  5.03206e-06
 Reference value :  5.03432e-06
 Reference value :  5.04129e-06
 Reference value :  5.05251e-06
 Reference value :  5.07684e-06
 Reference value :  5.13164e-06
 Reference value :  5.25010e-06
 Reference value :  5.25011e-06
 Reference value :  5.25017e-06
 Reference value :  5.25021e-06
 Reference value :  5.25026e-06
 Reference value :  5.25045e-06
 Reference value :  5.25070e-06
 Reference value :  5.25101e-06
 Reference value :  5.25150e-06
 Reference value :  5.25202e-06
 Reference value :  5.25325e-06
 Reference value :  5.25378e-06
 Reference value :  5.25438e-06
 Reference value :  5.25497e-06
 Reference value :  5.25647e-06
 Reference value :  5.25927e-06
 Reference value :  5.26183e-06
 Reference value :  5.27236e-06
 Reference value :  5.28640e-06
 Reference value :  5.31449e-06
 Reference value :  5.37068e-06
 Reference value :  5.50000e-06
 Reference value :  5.50001e-06
 Reference value :  5.50003e-06
 Reference value :  5.50007e-06
 Reference value :  5.50011e-06
 Reference value :  5.50012e-06
 Reference value :  5.50016e-06
 Reference value :  5.50022e-06
 Reference value :  5.50034e-06
 Reference value :  5.50052e-06
 Reference value :  5.50086e-06
 Reference value :  5.50131e-06
 Reference value :  5.50182e-06
 Reference value :  5.50278e-06
 Reference value :  5.50333e-06
 Reference value :  5.50391e-06
 Reference value :  5.50455e-06
 Reference value :  5.50549e-06
 Reference value :  5.50638e-06
 Reference value :  5.50718e-06
 Reference value :  5.50805e-06
 Reference value :  5.50889e-06
 Reference value :  5.50982e-06
 Reference value :  5.51087e-06
 Reference value :  5.51425e-06
 Reference value :  5.52766e-06
 Reference value :  5.58115e-06
 Reference value :  5.65247e-06
 Reference value :  5.75011e-06
 Reference value :  5.75013e-06
 Reference value :  5.75017e-06
 Reference value :  5.75020e-06
 Reference value :  5.75021e-06
 Reference value :  5.75022e-06
 Reference value :  5.75026e-06
 Reference value :  5.75045e-06
 Reference value :  5.75070e-06
 Reference value :  5.75101e-06
 Reference value :  5.75150e-06
 Reference value :  5.75251e-06
 Reference value :  5.75325e-06
 Reference value :  5.75377e-06
 Reference value :  5.75436e-06
 Reference value :  5.75490e-06
 Reference value :  5.75548e-06
 Reference value :  5.75626e-06
 Reference value :  5.75877e-06
 Reference value :  5.76087e-06
 Reference value :  5.76411e-06
 Reference value :  5.78135e-06
 Reference value :  5.80433e-06
 Reference value :  5.94225e-06
 Reference value :  6.00001e-06
 Reference value :  6.00003e-06
 Reference value :  6.00010e-06
 Reference value :  6.00011e-06
 Reference value :  6.00016e-06
 Reference value :  6.00034e-06
 Reference value :  6.00052e-06
 Reference value :  6.00086e-06
 Reference value :  6.00131e-06
 Reference value :  6.00182e-06
 Reference value :  6.00231e-06
 Reference value :  6.00278e-06
 Reference value :  6.00332e-06
 Reference value :  6.00390e-06
 Reference value :  6.00449e-06
 Reference value :  6.00521e-06
 Reference value :  6.00584e-06
 Reference value :  6.00650e-06
 Reference value :  6.00837e-06
 Reference value :  6.00976e-06
 Reference value :  6.01132e-06
 Reference value :  6.01278e-06
 Reference value :  6.01389e-06
 Reference value :  6.01496e-06
 Reference value :  6.01611e-06
 Reference value :  6.01716e-06
 Reference value :  6.01825e-06
 Reference value :  6.01946e-06
 Reference value :  6.02312e-06
 Reference value :  6.02661e-06
 Reference value :  6.03620e-06
 Reference value :  6.04228e-06
 Reference value :  6.04640e-06
 Reference value :  6.05059e-06
 Reference value :  6.05584e-06
 Reference value :  6.06923e-06
 Reference value :  6.07658e-06
 Reference value :  6.09968e-06
 Reference value :  6.14971e-06
 Reference value :  6.22483e-06
 Reference value :  6.25010e-06
 Reference value :  6.25011e-06
 Reference value :  6.25017e-06
 Reference value :  6.25021e-06
 Reference value :  6.25026e-06
 Reference value :  6.25032e-06
 Reference value :  6.25045e-06
 Reference value :  6.25070e-06
 Reference value :  6.25101e-06
 Reference value :  6.25150e-06
 Reference value :  6.25202e-06
 Reference value :  6.25251e-06
 Reference value :  6.25325e-06
 Reference value :  6.25377e-06
 Reference value :  6.25436e-06
 Reference value :  6.25495e-06
 Reference value :  6.25557e-06
 Reference value :  6.25642e-06
 Reference value :  6.25766e-06
 Reference value :  6.26178e-06
 Reference value :  6.27189e-06
 Reference value :  6.28537e-06
 Reference value :  6.29951e-06
 Reference value :  6.31420e-06
 Reference value :  6.36891e-06
 Reference value :  6.44185e-06
 Reference value :  6.50001e-06
 Reference value :  6.50007e-06
 Reference value :  6.50011e-06
 Reference value :  6.50012e-06
 Reference value :  6.50022e-06
 Reference value :  6.50034e-06
 Reference value :  6.50052e-06
 Reference value :  6.50131e-06
 Reference value :  6.50182e-06
 Reference value :  6.50231e-06
 Reference value :  6.50278e-06
 Reference value :  6.50333e-06
 Reference value :  6.50391e-06
 Reference value :  6.50455e-06
 Reference value :  6.50550e-06
 Reference value :  6.50639e-06
 Reference value :  6.50719e-06
 Reference value :  6.50805e-06
 Reference value :  6.50889e-06
 Reference value :  6.50982e-06
 Reference value :  6.51087e-06
 Reference value :  6.51425e-06
 Reference value :  6.52767e-06
 Reference value :  6.58120e-06
 Reference value :  6.65257e-06
 Reference value :  6.75010e-06
 Reference value :  6.75013e-06
 Reference value :  6.75020e-06
 Reference value :  6.75022e-06
 Reference value :  6.75032e-06
 Reference value :  6.75070e-06
 Reference value :  6.75150e-06
 Reference value :  6.75202e-06
 Reference value :  6.75251e-06
 Reference value :  6.75325e-06
 Reference value :  6.75377e-06
 Reference value :  6.75489e-06
 Reference value :  6.75548e-06
 Reference value :  6.75626e-06
 Reference value :  6.75710e-06
 Reference value :  6.75877e-06
 Reference value :  6.76086e-06
 Reference value :  6.76409e-06
 Reference value :  6.76983e-06
 Reference value :  6.78131e-06
 Reference value :  6.80426e-06
 Reference value :  6.94198e-06
 Reference value :  7.00001e-06
 Reference value :  7.00003e-06
 Reference value :  7.00007e-06
 Reference value :  7.00010e-06
 Reference value :  7.00012e-06
 Reference value :  7.00016e-06
 Reference value :  7.00022e-06
 Reference value :  7.00034e-06
 Reference value :  7.00052e-06
 Reference value :  7.00086e-06
 Reference value :  7.00131e-06
 Reference value :  7.00182e-06
 Reference value :  7.00231e-06
 Reference value :  7.00278e-06
 Reference value :  7.00332e-06
 Reference value :  7.00390e-06
 Reference value :  7.00449e-06
 Reference value :  7.00521e-06
 Reference value :  7.00584e-06
 Reference value :  7.00650e-06
 Reference value :  7.00837e-06
 Reference value :  7.00976e-06
 Reference value :  7.01132e-06
 Reference value :  7.01278e-06
 Reference value :  7.01389e-06
 Reference value :  7.01496e-06
 Reference value :  7.01611e-06
 Reference value :  7.01716e-06
 Reference value :  7.01825e-06
 Reference value :  7.01946e-06
 Reference value :  7.02139e-06
 Reference value :  7.02628e-06
 Reference value :  7.02950e-06
 Reference value :  7.03494e-06
 Reference value :  7.04081e-06
 Reference value :  7.04506e-06
 Reference value :  7.04975e-06
 Reference value :  7.05629e-06
 Reference value :  7.06402e-06
 Reference value :  7.07383e-06
 Reference value :  7.09448e-06
 Reference value :  7.11095e-06
 Reference value :  7.13879e-06
 Reference value :  7.24393e-06
 Reference value :  7.25010e-06
 Reference value :  7.25011e-06
 Reference value :  7.25017e-06
 Reference value :  7.25021e-06
 Reference value :  7.25026e-06
 Reference value :  7.25032e-06
 Reference value :  7.25045e-06
 Reference value :  7.25070e-06
 Reference value :  7.25101e-06
 Reference value :  7.25150e-06
 Reference value :  7.25202e-06
 Reference value :  7.25251e-06
 Reference value :  7.25325e-06
 Reference value :  7.25375e-06
 Reference value :  7.25432e-06
 Reference value :  7.25493e-06
 Reference value :  7.25556e-06
 Reference value :  7.25638e-06
 Reference value :  7.25777e-06
 Reference value :  7.25921e-06
 Reference value :  7.26193e-06
 Reference value :  7.26517e-06
 Reference value :  7.27165e-06
 Reference value :  7.31051e-06
 Reference value :  7.36233e-06
 Reference value :  7.46596e-06
 Reference value :  7.50001e-06
 Reference value :  7.50003e-06
 Reference value :  7.50007e-06
 Reference value :  7.50010e-06
 Reference value :  7.50011e-06
 Reference value :  7.50012e-06
 Reference value :  7.50016e-06
 Reference value :  7.50022e-06
 Reference value :  7.50034e-06
 Reference value :  7.50052e-06
 Reference value :  7.50086e-06
 Reference value :  7.50131e-06
 Reference value :  7.50175e-06
 Reference value :  7.50223e-06
 Reference value :  7.50268e-06
 Reference value :  7.50322e-06
 Reference value :  7.50379e-06
 Reference value :  7.50442e-06
 Reference value :  7.50521e-06
 Reference value :  7.50604e-06
 Reference value :  7.50673e-06
 Reference value :  7.50746e-06
 Reference value :  7.50840e-06
 Reference value :  7.50937e-06
 Reference value :  7.51032e-06
 Reference value :  7.51145e-06
 Reference value :  7.51512e-06
 Reference value :  7.51854e-06
 Reference value :  7.52476e-06
 Reference value :  7.53557e-06
 Reference value :  7.55394e-06
 Reference value :  7.59067e-06
 Reference value :  7.66413e-06
 Reference value :  7.75010e-06
 Reference value :  7.75011e-06
 Reference value :  7.75013e-06
 Reference value :  7.75017e-06
 Reference value :  7.75020e-06
 Reference value :  7.75021e-06
 Reference value :  7.75022e-06
 Reference value :  7.75026e-06
 Reference value :  7.75032e-06
 Reference value :  7.75070e-06
 Reference value :  7.75101e-06
 Reference value :  7.75150e-06
 Reference value :  7.75202e-06
 Reference value :  7.75251e-06
 Reference value :  7.75325e-06
 Reference value :  7.75377e-06
 Reference value :  7.75436e-06
 Reference value :  7.75490e-06
 Reference value :  7.75548e-06
 Reference value :  7.75626e-06
 Reference value :  7.75711e-06
 Reference value :  7.75792e-06
 Reference value :  7.75893e-06
 Reference value :  7.76016e-06
 Reference value :  7.76165e-06
 Reference value :  7.76405e-06
 Reference value :  7.77304e-06
 Reference value :  7.78140e-06
 Reference value :  7.79565e-06
 Reference value :  7.81909e-06
 Reference value :  7.95749e-06
 Reference value :  8.00001e-06
 Reference value :  8.00003e-06
 Reference value :  8.00007e-06
 Reference value :  8.00011e-06
 Reference value :  8.00012e-06
 Reference value :  8.00016e-06
 Reference value :  8.00022e-06
 Reference value :  8.00052e-06
 Reference value :  8.00086e-06
 Reference value :  8.00131e-06
 Reference value :  8.00182e-06
 Reference value :  8.00231e-06
 Reference value :  8.00278e-06
 Reference value :  8.00334e-06
 Reference value :  8.00393e-06
 Reference value :  8.00457e-06
 Reference value :  8.00518e-06
 Reference value :  8.00575e-06
 Reference value :  8.00641e-06
 Reference value :  8.00725e-06
 Reference value :  8.00806e-06
 Reference value :  8.00890e-06
 Reference value :  8.00964e-06
 Reference value :  8.01043e-06
 Reference value :  8.01145e-06
 Reference value :  8.01263e-06
 Reference value :  8.01446e-06
 Reference value :  8.01654e-06
 Reference value :  8.01924e-06
 Reference value :  8.02573e-06
 Reference value :  8.02971e-06
 Reference value :  8.03290e-06
 Reference value :  8.03627e-06
 Reference value :  8.04419e-06
 Reference value :  8.05759e-06
 Reference value :  8.09618e-06
 Reference value :  8.19080e-06
 Reference value :  8.25011e-06
 Reference value :  8.25017e-06
 Reference value :  8.25021e-06
 Reference value :  8.25026e-06
 Reference value :  8.25045e-06
 Reference value :  8.25070e-06
 Reference value :  8.25101e-06
 Reference value :  8.25150e-06
 Reference value :  8.25202e-06
 Reference value :  8.25251e-06
 Reference value :  8.25324e-06
 Reference value :  8.25400e-06
 Reference value :  8.25602e-06
 Reference value :  8.25696e-06
 Reference value :  8.25853e-06
 Reference value :  8.26020e-06
 Reference value :  8.26317e-06
 Reference value :  8.26794e-06
 Reference value :  8.29652e-06
 Reference value :  8.41084e-06
 Reference value :  8.50001e-06
 Reference value :  8.50003e-06
 Reference value :  8.50007e-06
 Reference value :  8.50011e-06
 Reference value :  8.50022e-06
 Reference value :  8.50035e-06
 Reference value :  8.50060e-06
 Reference value :  8.50094e-06
 Reference value :  8.50143e-06
 Reference value :  8.50195e-06
 Reference value :  8.50244e-06
 Reference value :  8.50297e-06
 Reference value :  8.50357e-06
 Reference value :  8.50424e-06
 Reference value :  8.50489e-06
 Reference value :  8.50563e-06
 Reference value :  8.50631e-06
 Reference value :  8.50849e-06
 Reference value :  8.51378e-06
 Reference value :  8.51987e-06
 Reference value :  8.52616e-06
 Reference value :  8.53070e-06
 Reference value :  8.53513e-06
 Reference value :  8.53814e-06
 Reference value :  8.54134e-06
 Reference value :  8.54473e-06
 Reference value :  8.54791e-06
 Reference value :  8.55200e-06
 Reference value :  8.55817e-06
 Reference value :  8.56520e-06
 Reference value :  8.57728e-06
 Reference value :  8.59450e-06
 Reference value :  8.62400e-06
 Reference value :  8.67195e-06
 Reference value :  8.75010e-06
 Reference value :  8.75013e-06
 Reference value :  8.75017e-06
 Reference value :  8.75021e-06
 Reference value :  8.75022e-06
 Reference value :  8.75026e-06
 Reference value :  8.75045e-06
 Reference value :  8.75070e-06
 Reference value :  8.75101e-06
 Reference value :  8.75150e-06
 Reference value :  8.75202e-06
 Reference value :  8.75251e-06
 Reference value :  8.75323e-06
 Reference value :  8.75376e-06
 Reference value :  8.75436e-06
 Reference value :  8.75493e-06
 Reference value :  8.75553e-06
 Reference value :  8.75643e-06
 Reference value :  8.75753e-06
 Reference value :  8.75912e-06
 Reference value :  8.76153e-06
 Reference value :  8.76495e-06
 Reference value :  8.77179e-06
 Reference value :  8.78545e-06
 Reference value :  8.81279e-06
 Reference value :  8.86746e-06
 Reference value :  8.97681e-06
 Reference value :  9.00000e-06
No. of Data Rows : 1328
ngspice-44 done
