
Note: Compatibility modes selected: hs a


Circuit: ** sch_path: /home/audrey/cace/sar-adc-using-sky130-pdk/runs/run_2025-08-29_18-13-25/parameters/power/run_08/power_consumption.sch

option SCALE: Scale is set to 1e-06 for instance and model parameters
option SCALE: Scale is set to 1e-06 for instance and model parameters
option SCALE: Scale is set to 1e-06 for instance and model parameters
option SCALE: Scale is set to 1e-06 for instance and model parameters
Doing analysis at TEMP = 27.000000 and TNOM = 27.000000

Using KLU as Direct Linear Solver
Operating point simulation skipped by 'uic',
  now using transient initial conditions.
 Reference value :  5.00000e-12
 Reference value :  5.14000e-12
 Reference value :  5.98000e-12
 Reference value :  8.77727e-12
 Reference value :  2.31681e-11
 Reference value :  6.29650e-11
 Reference value :  1.95394e-10
 Reference value :  4.86668e-10
 Reference value :  5.14871e-10
 Reference value :  6.01458e-10
 Reference value :  9.42533e-10
 Reference value :  1.59487e-09
 Reference value :  2.66807e-09
 Reference value :  4.17535e-09
 Reference value :  6.88153e-09
 Reference value :  8.11263e-09
 Reference value :  9.36501e-09
 Reference value :  1.24166e-08
 Reference value :  1.32258e-08
 Reference value :  1.48274e-08
 Reference value :  2.28403e-08
 Reference value :  3.04228e-08
 Reference value :  3.85823e-08
 Reference value :  8.62425e-08
 Reference value :  3.40348e-07
 Reference value :  4.46895e-07
 Reference value :  5.30463e-07
 Reference value :  6.93366e-07
 Reference value :  1.00055e-06
 Reference value :  1.00100e-06
 Reference value :  1.00109e-06
 Reference value :  1.00140e-06
 Reference value :  1.00201e-06
 Reference value :  1.00288e-06
 Reference value :  1.00403e-06
 Reference value :  1.00567e-06
 Reference value :  1.00859e-06
 Reference value :  1.01772e-06
 Reference value :  1.08674e-06
 Reference value :  2.00000e-06
 Reference value :  2.00035e-06
 Reference value :  2.00060e-06
 Reference value :  2.00135e-06
 Reference value :  2.00262e-06
 Reference value :  2.00363e-06
 Reference value :  2.00568e-06
 Reference value :  2.00675e-06
 Reference value :  2.00785e-06
 Reference value :  2.01003e-06
 Reference value :  2.01308e-06
 Reference value :  2.01637e-06
 Reference value :  2.01837e-06
 Reference value :  2.02717e-06
 Reference value :  2.05322e-06
 Reference value :  2.08755e-06
 Reference value :  2.28279e-06
 Reference value :  3.00050e-06
 Reference value :  3.00055e-06
 Reference value :  3.00085e-06
 Reference value :  3.00103e-06
 Reference value :  3.00124e-06
 Reference value :  3.00151e-06
 Reference value :  3.00178e-06
 Reference value :  3.00211e-06
 Reference value :  3.00250e-06
 Reference value :  3.00357e-06
 Reference value :  3.00402e-06
 Reference value :  3.00454e-06
 Reference value :  3.00554e-06
 Reference value :  3.00625e-06
 Reference value :  3.00775e-06
 Reference value :  3.00980e-06
 Reference value :  3.01337e-06
 Reference value :  3.02170e-06
 Reference value :  3.04465e-06
 Reference value :  3.13094e-06
 Reference value :  3.46096e-06
 Reference value :  4.00000e-06
 Reference value :  4.00015e-06
 Reference value :  4.00050e-06
 Reference value :  4.00053e-06
 Reference value :  4.00074e-06
 Reference value :  4.00135e-06
 Reference value :  4.00178e-06
 Reference value :  4.00219e-06
 Reference value :  4.00306e-06
 Reference value :  4.00359e-06
 Reference value :  4.00404e-06
 Reference value :  4.00452e-06
 Reference value :  4.00492e-06
 Reference value :  4.00603e-06
 Reference value :  4.00756e-06
 Reference value :  4.00854e-06
 Reference value :  4.00937e-06
 Reference value :  4.01024e-06
 Reference value :  4.01109e-06
 Reference value :  4.01201e-06
 Reference value :  4.01265e-06
 Reference value :  4.01435e-06
 Reference value :  4.01524e-06
 Reference value :  4.01615e-06
 Reference value :  4.01718e-06
 Reference value :  4.02021e-06
 Reference value :  4.02783e-06
 Reference value :  4.03501e-06
 Reference value :  4.06674e-06
 Reference value :  4.08296e-06
 Reference value :  4.09946e-06
 Reference value :  4.10871e-06
 Reference value :  4.12768e-06
 Reference value :  4.15254e-06
 Reference value :  4.19152e-06
 Reference value :  4.26551e-06
 Reference value :  4.41923e-06
 Reference value :  4.69779e-06
 Reference value :  4.92303e-06
 Reference value :  5.00055e-06
 Reference value :  5.00085e-06
 Reference value :  5.00103e-06
 Reference value :  5.00124e-06
 Reference value :  5.00178e-06
 Reference value :  5.00212e-06
 Reference value :  5.00296e-06
 Reference value :  5.00358e-06
 Reference value :  5.00404e-06
 Reference value :  5.00511e-06
 Reference value :  5.00645e-06
 Reference value :  5.00903e-06
 Reference value :  5.02089e-06
 Reference value :  5.05860e-06
 Reference value :  5.20944e-06
 Reference value :  5.81282e-06
 Reference value :  6.00005e-06
 Reference value :  6.00015e-06
 Reference value :  6.00050e-06
 Reference value :  6.00060e-06
 Reference value :  6.00101e-06
 Reference value :  6.00178e-06
 Reference value :  6.00219e-06
 Reference value :  6.00306e-06
 Reference value :  6.00413e-06
 Reference value :  6.00473e-06
 Reference value :  6.00548e-06
 Reference value :  6.00608e-06
 Reference value :  6.00680e-06
 Reference value :  6.00763e-06
 Reference value :  6.00939e-06
 Reference value :  6.01489e-06
 Reference value :  6.03926e-06
 Reference value :  6.11619e-06
 Reference value :  6.41971e-06
 Reference value :  6.82440e-06
 Reference value :  7.00055e-06
 Reference value :  7.00085e-06
 Reference value :  7.00103e-06
 Reference value :  7.00124e-06
 Reference value :  7.00178e-06
 Reference value :  7.00212e-06
 Reference value :  7.00250e-06
 Reference value :  7.00295e-06
 Reference value :  7.00357e-06
 Reference value :  7.00402e-06
 Reference value :  7.00501e-06
 Reference value :  7.00554e-06
 Reference value :  7.00624e-06
 Reference value :  7.00699e-06
 Reference value :  7.01037e-06
 Reference value :  7.01829e-06
 Reference value :  7.04831e-06
 Reference value :  7.16839e-06
 Reference value :  7.64872e-06
 Reference value :  8.00005e-06
 Reference value :  8.00015e-06
 Reference value :  8.00035e-06
 Reference value :  8.00053e-06
 Reference value :  8.00060e-06
 Reference value :  8.00101e-06
 Reference value :  8.00135e-06
 Reference value :  8.00178e-06
 Reference value :  8.00219e-06
 Reference value :  8.00261e-06
 Reference value :  8.00306e-06
 Reference value :  8.00359e-06
 Reference value :  8.00405e-06
 Reference value :  8.00494e-06
 Reference value :  8.00606e-06
 Reference value :  8.00782e-06
 Reference value :  8.00920e-06
 Reference value :  8.01057e-06
 Reference value :  8.01173e-06
 Reference value :  8.01266e-06
 Reference value :  8.01352e-06
 Reference value :  8.01458e-06
 Reference value :  8.01562e-06
 Reference value :  8.01661e-06
 Reference value :  8.01778e-06
 Reference value :  8.01946e-06
 Reference value :  8.02444e-06
 Reference value :  8.03711e-06
 Reference value :  8.05076e-06
 Reference value :  8.10676e-06
 Reference value :  8.37746e-06
 Reference value :  8.68954e-06
 Reference value :  9.00055e-06
 Reference value :  9.00065e-06
 Reference value :  9.00085e-06
 Reference value :  9.00110e-06
 Reference value :  9.00178e-06
 Reference value :  9.00212e-06
 Reference value :  9.00295e-06
 Reference value :  9.00404e-06
 Reference value :  9.00510e-06
 Reference value :  9.00759e-06
 Reference value :  9.02077e-06
 Reference value :  9.10832e-06
 Reference value :  9.80873e-06
 Reference value :  1.00001e-05
 Reference value :  1.00005e-05
 Reference value :  1.00006e-05
 Reference value :  1.00010e-05
 Reference value :  1.00018e-05
 Reference value :  1.00026e-05
 Reference value :  1.00036e-05
 Reference value :  1.00047e-05
 Reference value :  1.00061e-05
 Reference value :  1.00076e-05
 Reference value :  1.00094e-05
 Reference value :  1.00148e-05
 Reference value :  1.00642e-05
 Reference value :  1.04058e-05
 Reference value :  1.10006e-05
 Reference value :  1.10010e-05
 Reference value :  1.10015e-05
 Reference value :  1.10021e-05
 Reference value :  1.10030e-05
 Reference value :  1.10040e-05
 Reference value :  1.10050e-05
 Reference value :  1.10062e-05
 Reference value :  1.10104e-05
 Reference value :  1.10284e-05
 Reference value :  1.11692e-05
 Reference value :  1.20000e-05
 Reference value :  1.20005e-05
 Reference value :  1.20007e-05
 Reference value :  1.20014e-05
 Reference value :  1.20022e-05
 Reference value :  1.20031e-05
 Reference value :  1.20040e-05
 Reference value :  1.20049e-05
 Reference value :  1.20067e-05
 Reference value :  1.20092e-05
 Reference value :  1.20106e-05
 Reference value :  1.20117e-05
 Reference value :  1.20127e-05
 Reference value :  1.20146e-05
 Reference value :  1.20166e-05
 Reference value :  1.20195e-05
 Reference value :  1.20371e-05
 Reference value :  1.20469e-05
 Reference value :  1.20594e-05
 Reference value :  1.20727e-05
 Reference value :  1.20818e-05
 Reference value :  1.20986e-05
 Reference value :  1.21136e-05
 Reference value :  1.21430e-05
 Reference value :  1.21972e-05
 Reference value :  1.22296e-05
 Reference value :  1.22518e-05
 Reference value :  1.22619e-05
 Reference value :  1.22754e-05
 Reference value :  1.22862e-05
 Reference value :  1.23250e-05
 Reference value :  1.24159e-05
 Reference value :  1.26471e-05
 Reference value :  1.30005e-05
 Reference value :  1.30007e-05
 Reference value :  1.30010e-05
 Reference value :  1.30011e-05
 Reference value :  1.30012e-05
 Reference value :  1.30018e-05
 Reference value :  1.30021e-05
 Reference value :  1.30025e-05
 Reference value :  1.30030e-05
 Reference value :  1.30040e-05
 Reference value :  1.30051e-05
 Reference value :  1.30076e-05
 Reference value :  1.30208e-05
 Reference value :  1.32085e-05
 Reference value :  1.40000e-05
 Reference value :  1.40002e-05
 Reference value :  1.40005e-05
 Reference value :  1.40010e-05
 Reference value :  1.40022e-05
 Reference value :  1.40031e-05
 Reference value :  1.40041e-05
 Reference value :  1.40055e-05
 Reference value :  1.40061e-05
 Reference value :  1.40076e-05
 Reference value :  1.40094e-05
 Reference value :  1.40189e-05
 Reference value :  1.41121e-05
 Reference value :  1.50005e-05
 Reference value :  1.50009e-05
 Reference value :  1.50011e-05
 Reference value :  1.50018e-05
 Reference value :  1.50021e-05
 Reference value :  1.50036e-05
 Reference value :  1.50040e-05
 Reference value :  1.50050e-05
 Reference value :  1.50062e-05
 Reference value :  1.50104e-05
 Reference value :  1.50485e-05
 Reference value :  1.56519e-05
 Reference value :  1.60001e-05
 Reference value :  1.60005e-05
 Reference value :  1.60007e-05
 Reference value :  1.60014e-05
 Reference value :  1.60022e-05
 Reference value :  1.60031e-05
 Reference value :  1.60040e-05
 Reference value :  1.60049e-05
 Reference value :  1.60061e-05
 Reference value :  1.60078e-05
 Reference value :  1.60106e-05
 Reference value :  1.60129e-05
 Reference value :  1.60149e-05
 Reference value :  1.60171e-05
 Reference value :  1.60223e-05
 Reference value :  1.60302e-05
 Reference value :  1.60380e-05
 Reference value :  1.60454e-05
 Reference value :  1.60528e-05
 Reference value :  1.60625e-05
 Reference value :  1.60749e-05
 Reference value :  1.60944e-05
 Reference value :  1.61410e-05
 Reference value :  1.62996e-05
 Reference value :  1.69258e-05
 Reference value :  1.70006e-05
 Reference value :  1.70009e-05
 Reference value :  1.70010e-05
 Reference value :  1.70011e-05
 Reference value :  1.70014e-05
 Reference value :  1.70020e-05
 Reference value :  1.70029e-05
 Reference value :  1.70035e-05
 Reference value :  1.70046e-05
 Reference value :  1.70051e-05
 Reference value :  1.70064e-05
 Reference value :  1.70072e-05
 Reference value :  1.70108e-05
 Reference value :  1.70197e-05
 Reference value :  1.70542e-05
 Reference value :  1.71922e-05
 Reference value :  1.77441e-05
 Reference value :  1.80001e-05
 Reference value :  1.80004e-05
 Reference value :  1.80005e-05
 Reference value :  1.80007e-05
 Reference value :  1.80015e-05
 Reference value :  1.80023e-05
 Reference value :  1.80032e-05
 Reference value :  1.80043e-05
 Reference value :  1.80058e-05
 Reference value :  1.80064e-05
 Reference value :  1.80079e-05
 Reference value :  1.80088e-05
 Reference value :  1.80108e-05
 Reference value :  1.80145e-05
 Reference value :  1.80238e-05
 Reference value :  1.80525e-05
 Reference value :  1.81624e-05
 Reference value :  1.90005e-05
 Reference value :  1.90007e-05
 Reference value :  1.90010e-05
 Reference value :  1.90011e-05
 Reference value :  1.90014e-05
 Reference value :  1.90020e-05
 Reference value :  1.90029e-05
 Reference value :  1.90041e-05
 Reference value :  1.90046e-05
 Reference value :  1.90057e-05
 Reference value :  1.90072e-05
 Reference value :  1.90088e-05
 Reference value :  1.90135e-05
 Reference value :  1.90291e-05
 Reference value :  1.90944e-05
 Reference value :  1.92818e-05
 Reference value :  1.99955e-05
 Reference value :  2.00001e-05
 Reference value :  2.00004e-05
 Reference value :  2.00005e-05
 Reference value :  2.00007e-05
 Reference value :  2.00015e-05
 Reference value :  2.00023e-05
 Reference value :  2.00032e-05
 Reference value :  2.00042e-05
 Reference value :  2.00051e-05
 Reference value :  2.00062e-05
 Reference value :  2.00078e-05
 Reference value :  2.00097e-05
 Reference value :  2.00116e-05
 Reference value :  2.00124e-05
 Reference value :  2.00139e-05
 Reference value :  2.00157e-05
 Reference value :  2.00178e-05
 Reference value :  2.00251e-05
 Reference value :  2.00412e-05
 Reference value :  2.00540e-05
 Reference value :  2.00779e-05
 Reference value :  2.00929e-05
 Reference value :  2.01092e-05
 Reference value :  2.01793e-05
 Reference value :  2.02261e-05
 Reference value :  2.03455e-05
 Reference value :  2.10005e-05
 Reference value :  2.10006e-05
 Reference value :  2.10010e-05
 Reference value :  2.10011e-05
 Reference value :  2.10014e-05
 Reference value :  2.10020e-05
 Reference value :  2.10029e-05
 Reference value :  2.10041e-05
 Reference value :  2.10046e-05
 Reference value :  2.10057e-05
 Reference value :  2.10064e-05
 Reference value :  2.10106e-05
 Reference value :  2.10300e-05
 Reference value :  2.11815e-05
 Reference value :  2.17012e-05
 Reference value :  2.20001e-05
 Reference value :  2.20005e-05
 Reference value :  2.20010e-05
 Reference value :  2.20023e-05
 Reference value :  2.20032e-05
 Reference value :  2.20043e-05
 Reference value :  2.20058e-05
 Reference value :  2.20064e-05
 Reference value :  2.20079e-05
 Reference value :  2.20097e-05
 Reference value :  2.20144e-05
 Reference value :  2.20514e-05
 Reference value :  2.25830e-05
 Reference value :  2.30006e-05
 Reference value :  2.30010e-05
 Reference value :  2.30012e-05
 Reference value :  2.30017e-05
 Reference value :  2.30024e-05
 Reference value :  2.30041e-05
 Reference value :  2.30051e-05
 Reference value :  2.30072e-05
 Reference value :  2.30099e-05
 Reference value :  2.30217e-05
 Reference value :  2.30619e-05
 Reference value :  2.32848e-05
 Reference value :  2.40001e-05
 Reference value :  2.40005e-05
 Reference value :  2.40007e-05
 Reference value :  2.40019e-05
 Reference value :  2.40027e-05
 Reference value :  2.40037e-05
 Reference value :  2.40051e-05
 Reference value :  2.40069e-05
 Reference value :  2.40097e-05
 Reference value :  2.40116e-05
 Reference value :  2.40131e-05
 Reference value :  2.40139e-05
 Reference value :  2.40157e-05
 Reference value :  2.40168e-05
 Reference value :  2.40195e-05
 Reference value :  2.40362e-05
 Reference value :  2.40589e-05
 Reference value :  2.41229e-05
 Reference value :  2.42515e-05
 Reference value :  2.50005e-05
 Reference value :  2.50010e-05
 Reference value :  2.50012e-05
 Reference value :  2.50020e-05
 Reference value :  2.50035e-05
 Reference value :  2.50046e-05
 Reference value :  2.50064e-05
 Reference value :  2.50106e-05
 Reference value :  2.50191e-05
 Reference value :  2.51816e-05
 Reference value :  2.57015e-05
 Reference value :  2.60002e-05
 Reference value :  2.60005e-05
 Reference value :  2.60007e-05
 Reference value :  2.60015e-05
 Reference value :  2.60023e-05
 Reference value :  2.60032e-05
 Reference value :  2.60050e-05
 Reference value :  2.60058e-05
 Reference value :  2.60064e-05
 Reference value :  2.60071e-05
 Reference value :  2.60079e-05
 Reference value :  2.60097e-05
 Reference value :  2.60108e-05
 Reference value :  2.60177e-05
 Reference value :  2.60512e-05
 Reference value :  2.62979e-05
 Reference value :  2.70006e-05
 Reference value :  2.70010e-05
 Reference value :  2.70014e-05
 Reference value :  2.70024e-05
 Reference value :  2.70035e-05
 Reference value :  2.70046e-05
 Reference value :  2.70051e-05
 Reference value :  2.70065e-05
 Reference value :  2.70080e-05
 Reference value :  2.70135e-05
 Reference value :  2.70419e-05
 Reference value :  2.72848e-05
 Reference value :  2.80000e-05
 Reference value :  2.80005e-05
 Reference value :  2.80007e-05
 Reference value :  2.80015e-05
 Reference value :  2.80023e-05
 Reference value :  2.80032e-05
 Reference value :  2.80042e-05
 Reference value :  2.80056e-05
 Reference value :  2.80078e-05
 Reference value :  2.80097e-05
 Reference value :  2.80116e-05
 Reference value :  2.80131e-05
 Reference value :  2.80159e-05
 Reference value :  2.80170e-05
 Reference value :  2.80198e-05
 Reference value :  2.80314e-05
 Reference value :  2.80374e-05
 Reference value :  2.80411e-05
 Reference value :  2.80556e-05
 Reference value :  2.80751e-05
 Reference value :  2.81028e-05
 Reference value :  2.84207e-05
 Reference value :  2.90006e-05
 Reference value :  2.90010e-05
 Reference value :  2.90014e-05
 Reference value :  2.90024e-05
 Reference value :  2.90041e-05
 Reference value :  2.90057e-05
 Reference value :  2.90087e-05
 Reference value :  2.90305e-05
 Reference value :  2.93643e-05
 Reference value :  3.00001e-05
 Reference value :  3.00005e-05
 Reference value :  3.00010e-05
 Reference value :  3.00023e-05
 Reference value :  3.00032e-05
 Reference value :  3.00056e-05
 Reference value :  3.00076e-05
 Reference value :  3.00114e-05
 Reference value :  3.00972e-05
 Reference value :  3.10005e-05
 Reference value :  3.10010e-05
 Reference value :  3.10014e-05
 Reference value :  3.10029e-05
 Reference value :  3.10046e-05
 Reference value :  3.10072e-05
 Reference value :  3.10523e-05
 Reference value :  3.20001e-05
 Reference value :  3.20007e-05
 Reference value :  3.20023e-05
 Reference value :  3.20037e-05
 Reference value :  3.20051e-05
 Reference value :  3.20076e-05
 Reference value :  3.20155e-05
 Reference value :  3.25826e-05
 Reference value :  3.30010e-05
 Reference value :  3.30021e-05
 Reference value :  3.30042e-05
 Reference value :  3.30067e-05
 Reference value :  3.30121e-05
 Reference value :  3.32424e-05
No. of Data Rows : 1274
ngspice-44 done
