
Note: Compatibility modes selected: hs a


Circuit: ** sch_path: /home/audrey/cace/sar-adc-using-sky130-pdk/runs/run_2025-09-10_15-39-05/parameters/power/run_0/power_consumption.sch

option SCALE: Scale is set to 1e-06 for instance and model parameters
option SCALE: Scale is set to 1e-06 for instance and model parameters
option SCALE: Scale is set to 1e-06 for instance and model parameters
option SCALE: Scale is set to 1e-06 for instance and model parameters
Doing analysis at TEMP = 27.000000 and TNOM = 27.000000

Using KLU as Direct Linear Solver
 Reference value :  0.00000e+00
 Reference value :  1.00000e-12
 Reference value :  2.00000e-12
 Reference value :  4.00000e-12
 Reference value :  8.00000e-12
 Reference value :  1.60000e-11
 Reference value :  3.20000e-11
 Reference value :  6.40000e-11
 Reference value :  1.00000e-10
 Reference value :  1.01503e-10
 Reference value :  1.04508e-10
 Reference value :  1.10520e-10
 Reference value :  1.22542e-10
 Reference value :  1.46587e-10
 Reference value :  1.94676e-10
 Reference value :  2.90855e-10
 Reference value :  4.60258e-10
 Reference value :  7.25637e-10
 Reference value :  1.08501e-09
 Reference value :  1.56333e-09
 Reference value :  2.16618e-09
 Reference value :  2.84267e-09
 Reference value :  3.60704e-09
 Reference value :  4.49806e-09
 Reference value :  5.32024e-09
 Reference value :  6.12276e-09
 Reference value :  6.91796e-09
 Reference value :  7.77867e-09
 Reference value :  8.81841e-09
 Reference value :  9.85210e-09
 Reference value :  1.08752e-08
 Reference value :  1.20450e-08
 Reference value :  1.32441e-08
 Reference value :  1.45182e-08
 Reference value :  1.63346e-08
 Reference value :  1.76345e-08
 Reference value :  1.90337e-08
 Reference value :  2.03183e-08
 Reference value :  2.19511e-08
 Reference value :  2.36692e-08
 Reference value :  2.65877e-08
 Reference value :  2.95364e-08
 Reference value :  3.24285e-08
 Reference value :  3.64816e-08
 Reference value :  4.15934e-08
 Reference value :  4.90466e-08
 Reference value :  5.72889e-08
 Reference value :  6.65466e-08
 Reference value :  7.49862e-08
 Reference value :  8.07693e-08
 Reference value :  8.61085e-08
 Reference value :  9.27867e-08
 Reference value :  9.99115e-08
 Reference value :  1.08999e-07
 Reference value :  1.19956e-07
 Reference value :  1.31529e-07
 Reference value :  1.49232e-07
 Reference value :  1.68873e-07
 Reference value :  1.90174e-07
 Reference value :  2.12393e-07
 Reference value :  2.22755e-07
 Reference value :  2.31740e-07
 Reference value :  2.39573e-07
 Reference value :  2.44713e-07
 Reference value :  2.50100e-07
 Reference value :  2.50110e-07
 Reference value :  2.50130e-07
 Reference value :  2.50170e-07
 Reference value :  2.50200e-07
 Reference value :  2.50201e-07
 Reference value :  2.50202e-07
 Reference value :  2.50204e-07
 Reference value :  2.50208e-07
 Reference value :  2.50216e-07
 Reference value :  2.50233e-07
 Reference value :  2.50266e-07
 Reference value :  2.50333e-07
 Reference value :  2.50439e-07
 Reference value :  2.50623e-07
 Reference value :  2.50828e-07
 Reference value :  2.51161e-07
 Reference value :  2.51621e-07
 Reference value :  2.52170e-07
 Reference value :  2.52777e-07
 Reference value :  2.53433e-07
 Reference value :  2.54296e-07
 Reference value :  2.55113e-07
 Reference value :  2.55989e-07
 Reference value :  2.56821e-07
 Reference value :  2.57764e-07
 Reference value :  2.58684e-07
 Reference value :  2.60382e-07
 Reference value :  2.61945e-07
 Reference value :  2.64673e-07
 Reference value :  2.68291e-07
 Reference value :  2.73243e-07
 Reference value :  2.80696e-07
 Reference value :  2.95600e-07
 Reference value :  3.25410e-07
 Reference value :  3.85029e-07
 Reference value :  5.00000e-07
 Reference value :  5.00010e-07
 Reference value :  5.00030e-07
 Reference value :  5.00070e-07
 Reference value :  5.00100e-07
 Reference value :  5.00104e-07
 Reference value :  5.00113e-07
 Reference value :  5.00130e-07
 Reference value :  5.00165e-07
 Reference value :  5.00234e-07
 Reference value :  5.00372e-07
 Reference value :  5.00573e-07
 Reference value :  5.00954e-07
 Reference value :  5.01537e-07
 Reference value :  5.02099e-07
 Reference value :  5.02766e-07
 Reference value :  5.03484e-07
 Reference value :  5.04291e-07
 Reference value :  5.05138e-07
 Reference value :  5.05945e-07
 Reference value :  5.06984e-07
 Reference value :  5.08050e-07
 Reference value :  5.09909e-07
 Reference value :  5.12259e-07
 Reference value :  5.14440e-07
 Reference value :  5.16822e-07
 Reference value :  5.19019e-07
 Reference value :  5.21605e-07
 Reference value :  5.24397e-07
 Reference value :  5.29340e-07
 Reference value :  5.36079e-07
 Reference value :  5.47186e-07
 Reference value :  5.66747e-07
 Reference value :  5.97269e-07
 Reference value :  6.56146e-07
 Reference value :  7.50100e-07
 Reference value :  7.50110e-07
 Reference value :  7.50130e-07
 Reference value :  7.50170e-07
 Reference value :  7.50200e-07
 Reference value :  7.50201e-07
 Reference value :  7.50202e-07
 Reference value :  7.50205e-07
 Reference value :  7.50211e-07
 Reference value :  7.50223e-07
 Reference value :  7.50247e-07
 Reference value :  7.50295e-07
 Reference value :  7.50390e-07
 Reference value :  7.50581e-07
 Reference value :  7.50959e-07
 Reference value :  7.51572e-07
 Reference value :  7.52191e-07
 Reference value :  7.52840e-07
 Reference value :  7.53541e-07
 Reference value :  7.54448e-07
 Reference value :  7.55182e-07
 Reference value :  7.56016e-07
 Reference value :  7.56747e-07
 Reference value :  7.57555e-07
 Reference value :  7.58570e-07
 Reference value :  7.59661e-07
 Reference value :  7.60742e-07
 Reference value :  7.62521e-07
 Reference value :  7.64158e-07
 Reference value :  7.67175e-07
 Reference value :  7.70210e-07
 Reference value :  7.74948e-07
 Reference value :  7.83047e-07
 Reference value :  7.93775e-07
 Reference value :  8.12375e-07
 Reference value :  8.44971e-07
 Reference value :  9.02064e-07
 Reference value :  1.00000e-06
 Reference value :  1.00001e-06
 Reference value :  1.00003e-06
 Reference value :  1.00007e-06
 Reference value :  1.00010e-06
 Reference value :  1.00010e-06
 Reference value :  1.00011e-06
 Reference value :  1.00013e-06
 Reference value :  1.00017e-06
 Reference value :  1.00023e-06
 Reference value :  1.00037e-06
 Reference value :  1.00058e-06
 Reference value :  1.00096e-06
 Reference value :  1.00154e-06
 Reference value :  1.00210e-06
 Reference value :  1.00278e-06
 Reference value :  1.00354e-06
 Reference value :  1.00443e-06
 Reference value :  1.00528e-06
 Reference value :  1.00604e-06
 Reference value :  1.00684e-06
 Reference value :  1.00758e-06
 Reference value :  1.00841e-06
 Reference value :  1.00934e-06
 Reference value :  1.01049e-06
 Reference value :  1.01235e-06
 Reference value :  1.01460e-06
 Reference value :  1.01631e-06
 Reference value :  1.01818e-06
 Reference value :  1.02030e-06
 Reference value :  1.02225e-06
 Reference value :  1.02367e-06
 Reference value :  1.02500e-06
 Reference value :  1.02654e-06
 Reference value :  1.02808e-06
 Reference value :  1.02977e-06
 Reference value :  1.03225e-06
 Reference value :  1.03492e-06
 Reference value :  1.03983e-06
 Reference value :  1.04714e-06
 Reference value :  1.05837e-06
 Reference value :  1.08083e-06
 Reference value :  1.12027e-06
 Reference value :  1.19738e-06
 Reference value :  1.25010e-06
 Reference value :  1.25011e-06
 Reference value :  1.25013e-06
 Reference value :  1.25017e-06
 Reference value :  1.25020e-06
 Reference value :  1.25020e-06
 Reference value :  1.25020e-06
 Reference value :  1.25021e-06
 Reference value :  1.25021e-06
 Reference value :  1.25022e-06
 Reference value :  1.25025e-06
 Reference value :  1.25029e-06
 Reference value :  1.25039e-06
 Reference value :  1.25057e-06
 Reference value :  1.25090e-06
 Reference value :  1.25154e-06
 Reference value :  1.25213e-06
 Reference value :  1.25276e-06
 Reference value :  1.25347e-06
 Reference value :  1.25448e-06
 Reference value :  1.25524e-06
 Reference value :  1.25605e-06
 Reference value :  1.25707e-06
 Reference value :  1.25810e-06
 Reference value :  1.25922e-06
 Reference value :  1.26146e-06
 Reference value :  1.26371e-06
 Reference value :  1.26745e-06
 Reference value :  1.27171e-06
 Reference value :  1.28025e-06
 Reference value :  1.29732e-06
 Reference value :  1.32508e-06
 Reference value :  1.38059e-06
 Reference value :  1.44508e-06
 Reference value :  1.50000e-06
 Reference value :  1.50001e-06
 Reference value :  1.50003e-06
 Reference value :  1.50007e-06
 Reference value :  1.50010e-06
 Reference value :  1.50010e-06
 Reference value :  1.50011e-06
 Reference value :  1.50013e-06
 Reference value :  1.50016e-06
 Reference value :  1.50023e-06
 Reference value :  1.50037e-06
 Reference value :  1.50057e-06
 Reference value :  1.50093e-06
 Reference value :  1.50144e-06
 Reference value :  1.50196e-06
 Reference value :  1.50257e-06
 Reference value :  1.50328e-06
 Reference value :  1.50403e-06
 Reference value :  1.50495e-06
 Reference value :  1.50586e-06
 Reference value :  1.50684e-06
 Reference value :  1.50810e-06
 Reference value :  1.50937e-06
 Reference value :  1.51068e-06
 Reference value :  1.51201e-06
 Reference value :  1.51368e-06
 Reference value :  1.51506e-06
 Reference value :  1.51665e-06
 Reference value :  1.51820e-06
 Reference value :  1.52000e-06
 Reference value :  1.52360e-06
 Reference value :  1.52748e-06
 Reference value :  1.53269e-06
 Reference value :  1.53618e-06
 Reference value :  1.54002e-06
 Reference value :  1.54396e-06
 Reference value :  1.54815e-06
 Reference value :  1.55653e-06
 Reference value :  1.56586e-06
 Reference value :  1.58216e-06
 Reference value :  1.60581e-06
 Reference value :  1.64147e-06
 Reference value :  1.67521e-06
 Reference value :  1.72168e-06
 Reference value :  1.75010e-06
 Reference value :  1.75011e-06
 Reference value :  1.75013e-06
 Reference value :  1.75017e-06
 Reference value :  1.75020e-06
 Reference value :  1.75020e-06
 Reference value :  1.75020e-06
 Reference value :  1.75021e-06
 Reference value :  1.75021e-06
 Reference value :  1.75022e-06
 Reference value :  1.75025e-06
 Reference value :  1.75029e-06
 Reference value :  1.75039e-06
 Reference value :  1.75057e-06
 Reference value :  1.75090e-06
 Reference value :  1.75156e-06
 Reference value :  1.75215e-06
 Reference value :  1.75278e-06
 Reference value :  1.75348e-06
 Reference value :  1.75439e-06
 Reference value :  1.75515e-06
 Reference value :  1.75600e-06
 Reference value :  1.75673e-06
 Reference value :  1.75754e-06
 Reference value :  1.75859e-06
 Reference value :  1.75970e-06
 Reference value :  1.76192e-06
 Reference value :  1.76426e-06
 Reference value :  1.76837e-06
 Reference value :  1.77280e-06
 Reference value :  1.78166e-06
 Reference value :  1.79938e-06
 Reference value :  1.83350e-06
 Reference value :  1.90174e-06
 Reference value :  2.00000e-06
 Reference value :  2.00001e-06
 Reference value :  2.00003e-06
 Reference value :  2.00007e-06
 Reference value :  2.00010e-06
 Reference value :  2.00010e-06
 Reference value :  2.00011e-06
 Reference value :  2.00013e-06
 Reference value :  2.00016e-06
 Reference value :  2.00023e-06
 Reference value :  2.00037e-06
 Reference value :  2.00057e-06
 Reference value :  2.00093e-06
 Reference value :  2.00143e-06
 Reference value :  2.00196e-06
 Reference value :  2.00260e-06
 Reference value :  2.00337e-06
 Reference value :  2.00412e-06
 Reference value :  2.00498e-06
 Reference value :  2.00573e-06
 Reference value :  2.00654e-06
 Reference value :  2.00756e-06
 Reference value :  2.00853e-06
 Reference value :  2.00954e-06
 Reference value :  2.01096e-06
 Reference value :  2.01250e-06
 Reference value :  2.01509e-06
 Reference value :  2.01830e-06
 Reference value :  2.02061e-06
 Reference value :  2.02270e-06
 Reference value :  2.02474e-06
 Reference value :  2.02667e-06
 Reference value :  2.02851e-06
 Reference value :  2.03083e-06
 Reference value :  2.03307e-06
 Reference value :  2.03605e-06
 Reference value :  2.03966e-06
 Reference value :  2.04471e-06
 Reference value :  2.05116e-06
 Reference value :  2.05766e-06
 Reference value :  2.06165e-06
 Reference value :  2.06692e-06
 Reference value :  2.07233e-06
 Reference value :  2.07644e-06
 Reference value :  2.08077e-06
 Reference value :  2.08736e-06
 Reference value :  2.09348e-06
 Reference value :  2.10273e-06
 Reference value :  2.10978e-06
 Reference value :  2.11839e-06
 Reference value :  2.12913e-06
 Reference value :  2.14546e-06
 Reference value :  2.17066e-06
 Reference value :  2.21009e-06
 Reference value :  2.25010e-06
 Reference value :  2.25011e-06
 Reference value :  2.25013e-06
 Reference value :  2.25017e-06
 Reference value :  2.25020e-06
 Reference value :  2.25020e-06
 Reference value :  2.25020e-06
 Reference value :  2.25021e-06
 Reference value :  2.25021e-06
 Reference value :  2.25022e-06
 Reference value :  2.25025e-06
 Reference value :  2.25029e-06
 Reference value :  2.25039e-06
 Reference value :  2.25057e-06
 Reference value :  2.25090e-06
 Reference value :  2.25156e-06
 Reference value :  2.25215e-06
 Reference value :  2.25279e-06
 Reference value :  2.25349e-06
 Reference value :  2.25440e-06
 Reference value :  2.25512e-06
 Reference value :  2.25593e-06
 Reference value :  2.25680e-06
 Reference value :  2.25769e-06
 Reference value :  2.25885e-06
 Reference value :  2.26079e-06
 Reference value :  2.26322e-06
 Reference value :  2.26628e-06
 Reference value :  2.27059e-06
 Reference value :  2.27729e-06
 Reference value :  2.29068e-06
 Reference value :  2.31747e-06
 Reference value :  2.37103e-06
 Reference value :  2.47096e-06
 Reference value :  2.50000e-06
 Reference value :  2.50001e-06
 Reference value :  2.50003e-06
 Reference value :  2.50007e-06
 Reference value :  2.50010e-06
 Reference value :  2.50010e-06
 Reference value :  2.50011e-06
 Reference value :  2.50013e-06
 Reference value :  2.50016e-06
 Reference value :  2.50023e-06
 Reference value :  2.50037e-06
 Reference value :  2.50057e-06
 Reference value :  2.50093e-06
 Reference value :  2.50144e-06
 Reference value :  2.50196e-06
 Reference value :  2.50257e-06
 Reference value :  2.50328e-06
 Reference value :  2.50403e-06
 Reference value :  2.50495e-06
 Reference value :  2.50586e-06
 Reference value :  2.50684e-06
 Reference value :  2.50810e-06
 Reference value :  2.50936e-06
 Reference value :  2.51066e-06
 Reference value :  2.51200e-06
 Reference value :  2.51365e-06
 Reference value :  2.51503e-06
 Reference value :  2.51660e-06
 Reference value :  2.51814e-06
 Reference value :  2.51994e-06
 Reference value :  2.52353e-06
 Reference value :  2.52900e-06
 Reference value :  2.53994e-06
 Reference value :  2.56099e-06
 Reference value :  2.60309e-06
 Reference value :  2.68728e-06
 Reference value :  2.75010e-06
 Reference value :  2.75011e-06
 Reference value :  2.75013e-06
 Reference value :  2.75017e-06
 Reference value :  2.75020e-06
 Reference value :  2.75020e-06
 Reference value :  2.75020e-06
 Reference value :  2.75021e-06
 Reference value :  2.75021e-06
 Reference value :  2.75022e-06
 Reference value :  2.75025e-06
 Reference value :  2.75029e-06
 Reference value :  2.75039e-06
 Reference value :  2.75057e-06
 Reference value :  2.75090e-06
 Reference value :  2.75156e-06
 Reference value :  2.75215e-06
 Reference value :  2.75278e-06
 Reference value :  2.75349e-06
 Reference value :  2.75440e-06
 Reference value :  2.75514e-06
 Reference value :  2.75598e-06
 Reference value :  2.75671e-06
 Reference value :  2.75751e-06
 Reference value :  2.75855e-06
 Reference value :  2.75965e-06
 Reference value :  2.76078e-06
 Reference value :  2.76248e-06
 Reference value :  2.76453e-06
 Reference value :  2.76718e-06
 Reference value :  2.77073e-06
 Reference value :  2.77528e-06
 Reference value :  2.78438e-06
 Reference value :  2.79826e-06
 Reference value :  2.82603e-06
 Reference value :  2.88155e-06
 Reference value :  2.99261e-06
 Reference value :  3.00000e-06
 Reference value :  3.00001e-06
 Reference value :  3.00003e-06
 Reference value :  3.00007e-06
 Reference value :  3.00010e-06
 Reference value :  3.00010e-06
 Reference value :  3.00011e-06
 Reference value :  3.00013e-06
 Reference value :  3.00017e-06
 Reference value :  3.00023e-06
 Reference value :  3.00037e-06
 Reference value :  3.00057e-06
 Reference value :  3.00093e-06
 Reference value :  3.00145e-06
 Reference value :  3.00198e-06
 Reference value :  3.00262e-06
 Reference value :  3.00338e-06
 Reference value :  3.00415e-06
 Reference value :  3.00498e-06
 Reference value :  3.00572e-06
 Reference value :  3.00650e-06
 Reference value :  3.00723e-06
 Reference value :  3.00806e-06
 Reference value :  3.00887e-06
 Reference value :  3.00995e-06
 Reference value :  3.01115e-06
 Reference value :  3.01297e-06
 Reference value :  3.01491e-06
 Reference value :  3.01658e-06
 Reference value :  3.01831e-06
 Reference value :  3.02019e-06
 Reference value :  3.02171e-06
 Reference value :  3.02322e-06
 Reference value :  3.02503e-06
 Reference value :  3.02675e-06
 Reference value :  3.02829e-06
 Reference value :  3.03036e-06
 Reference value :  3.03332e-06
 Reference value :  3.03601e-06
 Reference value :  3.04104e-06
 Reference value :  3.04748e-06
 Reference value :  3.05753e-06
 Reference value :  3.07387e-06
 Reference value :  3.10029e-06
 Reference value :  3.12537e-06
 Reference value :  3.15417e-06
 Reference value :  3.19018e-06
 Reference value :  3.23001e-06
 Reference value :  3.25010e-06
 Reference value :  3.25011e-06
 Reference value :  3.25013e-06
 Reference value :  3.25017e-06
 Reference value :  3.25020e-06
 Reference value :  3.25020e-06
 Reference value :  3.25020e-06
 Reference value :  3.25021e-06
 Reference value :  3.25021e-06
 Reference value :  3.25022e-06
 Reference value :  3.25025e-06
 Reference value :  3.25029e-06
 Reference value :  3.25039e-06
 Reference value :  3.25057e-06
 Reference value :  3.25090e-06
 Reference value :  3.25155e-06
 Reference value :  3.25215e-06
 Reference value :  3.25278e-06
 Reference value :  3.25349e-06
 Reference value :  3.25440e-06
 Reference value :  3.25513e-06
 Reference value :  3.25596e-06
 Reference value :  3.25681e-06
 Reference value :  3.25770e-06
 Reference value :  3.25887e-06
 Reference value :  3.26076e-06
 Reference value :  3.26321e-06
 Reference value :  3.26625e-06
 Reference value :  3.27057e-06
 Reference value :  3.27719e-06
 Reference value :  3.29044e-06
 Reference value :  3.31693e-06
 Reference value :  3.36990e-06
 Reference value :  3.47586e-06
 Reference value :  3.50000e-06
 Reference value :  3.50001e-06
 Reference value :  3.50003e-06
 Reference value :  3.50007e-06
 Reference value :  3.50010e-06
 Reference value :  3.50010e-06
 Reference value :  3.50011e-06
 Reference value :  3.50013e-06
 Reference value :  3.50016e-06
 Reference value :  3.50023e-06
 Reference value :  3.50037e-06
 Reference value :  3.50057e-06
 Reference value :  3.50093e-06
 Reference value :  3.50144e-06
 Reference value :  3.50196e-06
 Reference value :  3.50257e-06
 Reference value :  3.50328e-06
 Reference value :  3.50403e-06
 Reference value :  3.50495e-06
 Reference value :  3.50585e-06
 Reference value :  3.50684e-06
 Reference value :  3.50798e-06
 Reference value :  3.50926e-06
 Reference value :  3.51049e-06
 Reference value :  3.51175e-06
 Reference value :  3.51349e-06
 Reference value :  3.51493e-06
 Reference value :  3.51649e-06
 Reference value :  3.51806e-06
 Reference value :  3.51988e-06
 Reference value :  3.52342e-06
 Reference value :  3.52853e-06
 Reference value :  3.53876e-06
 Reference value :  3.55921e-06
 Reference value :  3.60011e-06
 Reference value :  3.68190e-06
 Reference value :  3.75010e-06
 Reference value :  3.75011e-06
 Reference value :  3.75013e-06
 Reference value :  3.75017e-06
 Reference value :  3.75020e-06
 Reference value :  3.75020e-06
 Reference value :  3.75020e-06
 Reference value :  3.75021e-06
 Reference value :  3.75021e-06
 Reference value :  3.75022e-06
 Reference value :  3.75025e-06
 Reference value :  3.75029e-06
 Reference value :  3.75039e-06
 Reference value :  3.75057e-06
 Reference value :  3.75090e-06
 Reference value :  3.75156e-06
 Reference value :  3.75215e-06
 Reference value :  3.75279e-06
 Reference value :  3.75349e-06
 Reference value :  3.75440e-06
 Reference value :  3.75514e-06
 Reference value :  3.75597e-06
 Reference value :  3.75669e-06
 Reference value :  3.75749e-06
 Reference value :  3.75852e-06
 Reference value :  3.75962e-06
 Reference value :  3.76069e-06
 Reference value :  3.76245e-06
 Reference value :  3.76424e-06
 Reference value :  3.76710e-06
 Reference value :  3.77037e-06
 Reference value :  3.77503e-06
 Reference value :  3.78363e-06
 Reference value :  3.79491e-06
 Reference value :  3.81611e-06
 Reference value :  3.85620e-06
 Reference value :  3.92410e-06
 Reference value :  4.00000e-06
 Reference value :  4.00001e-06
 Reference value :  4.00003e-06
 Reference value :  4.00007e-06
 Reference value :  4.00010e-06
 Reference value :  4.00010e-06
 Reference value :  4.00011e-06
 Reference value :  4.00013e-06
 Reference value :  4.00017e-06
 Reference value :  4.00023e-06
 Reference value :  4.00037e-06
 Reference value :  4.00057e-06
 Reference value :  4.00093e-06
 Reference value :  4.00145e-06
 Reference value :  4.00198e-06
 Reference value :  4.00262e-06
 Reference value :  4.00338e-06
 Reference value :  4.00415e-06
 Reference value :  4.00498e-06
 Reference value :  4.00570e-06
 Reference value :  4.00648e-06
 Reference value :  4.00720e-06
 Reference value :  4.00804e-06
 Reference value :  4.00886e-06
 Reference value :  4.00995e-06
 Reference value :  4.01118e-06
 Reference value :  4.01322e-06
 Reference value :  4.01459e-06
 Reference value :  4.01612e-06
 Reference value :  4.01767e-06
 Reference value :  4.01940e-06
 Reference value :  4.02101e-06
 Reference value :  4.02236e-06
 Reference value :  4.02383e-06
 Reference value :  4.02515e-06
 Reference value :  4.02665e-06
 Reference value :  4.02814e-06
 Reference value :  4.02971e-06
 Reference value :  4.03229e-06
 Reference value :  4.03528e-06
 Reference value :  4.04125e-06
 Reference value :  4.05211e-06
 Reference value :  4.06935e-06
 Reference value :  4.08894e-06
 Reference value :  4.10740e-06
 Reference value :  4.12089e-06
 Reference value :  4.13490e-06
 Reference value :  4.14392e-06
 Reference value :  4.15231e-06
 Reference value :  4.16861e-06
 Reference value :  4.18475e-06
 Reference value :  4.21010e-06
 Reference value :  4.25010e-06
 Reference value :  4.25011e-06
 Reference value :  4.25013e-06
 Reference value :  4.25017e-06
 Reference value :  4.25020e-06
 Reference value :  4.25020e-06
 Reference value :  4.25020e-06
 Reference value :  4.25021e-06
 Reference value :  4.25021e-06
 Reference value :  4.25022e-06
 Reference value :  4.25025e-06
 Reference value :  4.25029e-06
 Reference value :  4.25039e-06
 Reference value :  4.25057e-06
 Reference value :  4.25090e-06
 Reference value :  4.25155e-06
 Reference value :  4.25215e-06
 Reference value :  4.25279e-06
 Reference value :  4.25349e-06
 Reference value :  4.25440e-06
 Reference value :  4.25516e-06
 Reference value :  4.25600e-06
 Reference value :  4.25686e-06
 Reference value :  4.25776e-06
 Reference value :  4.25896e-06
 Reference value :  4.26084e-06
 Reference value :  4.26325e-06
 Reference value :  4.26639e-06
 Reference value :  4.27069e-06
 Reference value :  4.27747e-06
 Reference value :  4.29102e-06
 Reference value :  4.31756e-06
 Reference value :  4.37064e-06
 Reference value :  4.47680e-06
 Reference value :  4.50000e-06
 Reference value :  4.50001e-06
 Reference value :  4.50003e-06
 Reference value :  4.50007e-06
 Reference value :  4.50010e-06
 Reference value :  4.50010e-06
 Reference value :  4.50011e-06
 Reference value :  4.50013e-06
 Reference value :  4.50016e-06
 Reference value :  4.50023e-06
 Reference value :  4.50037e-06
 Reference value :  4.50057e-06
 Reference value :  4.50093e-06
 Reference value :  4.50143e-06
 Reference value :  4.50196e-06
 Reference value :  4.50260e-06
 Reference value :  4.50337e-06
 Reference value :  4.50412e-06
 Reference value :  4.50493e-06
 Reference value :  4.50583e-06
 Reference value :  4.50675e-06
 Reference value :  4.50786e-06
 Reference value :  4.50905e-06
 Reference value :  4.51021e-06
 Reference value :  4.51143e-06
 Reference value :  4.51309e-06
 Reference value :  4.51449e-06
 Reference value :  4.51600e-06
 Reference value :  4.51755e-06
 Reference value :  4.51934e-06
 Reference value :  4.52277e-06
 Reference value :  4.52779e-06
 Reference value :  4.53784e-06
 Reference value :  4.55793e-06
 Reference value :  4.59810e-06
 Reference value :  4.63757e-06
 Reference value :  4.69607e-06
 Reference value :  4.73153e-06
 Reference value :  4.75010e-06
 Reference value :  4.75011e-06
 Reference value :  4.75013e-06
 Reference value :  4.75017e-06
 Reference value :  4.75020e-06
 Reference value :  4.75020e-06
 Reference value :  4.75020e-06
 Reference value :  4.75021e-06
 Reference value :  4.75021e-06
 Reference value :  4.75022e-06
 Reference value :  4.75025e-06
 Reference value :  4.75029e-06
 Reference value :  4.75039e-06
 Reference value :  4.75057e-06
 Reference value :  4.75090e-06
 Reference value :  4.75155e-06
 Reference value :  4.75215e-06
 Reference value :  4.75278e-06
 Reference value :  4.75348e-06
 Reference value :  4.75440e-06
 Reference value :  4.75514e-06
 Reference value :  4.75598e-06
 Reference value :  4.75670e-06
 Reference value :  4.75750e-06
 Reference value :  4.75854e-06
 Reference value :  4.75964e-06
 Reference value :  4.76078e-06
 Reference value :  4.76246e-06
 Reference value :  4.76454e-06
 Reference value :  4.76717e-06
 Reference value :  4.77077e-06
 Reference value :  4.77529e-06
 Reference value :  4.78434e-06
 Reference value :  4.79854e-06
 Reference value :  4.82694e-06
 Reference value :  4.88374e-06
 Reference value :  4.96461e-06
 Reference value :  5.00000e-06
 Reference value :  5.00001e-06
 Reference value :  5.00003e-06
 Reference value :  5.00007e-06
 Reference value :  5.00010e-06
 Reference value :  5.00010e-06
 Reference value :  5.00011e-06
 Reference value :  5.00013e-06
 Reference value :  5.00017e-06
 Reference value :  5.00023e-06
 Reference value :  5.00037e-06
 Reference value :  5.00057e-06
 Reference value :  5.00093e-06
 Reference value :  5.00145e-06
 Reference value :  5.00198e-06
 Reference value :  5.00261e-06
 Reference value :  5.00338e-06
 Reference value :  5.00414e-06
 Reference value :  5.00497e-06
 Reference value :  5.00568e-06
 Reference value :  5.00647e-06
 Reference value :  5.00719e-06
 Reference value :  5.00804e-06
 Reference value :  5.00891e-06
 Reference value :  5.00998e-06
 Reference value :  5.01133e-06
 Reference value :  5.01334e-06
 Reference value :  5.01465e-06
 Reference value :  5.01618e-06
 Reference value :  5.01789e-06
 Reference value :  5.01957e-06
 Reference value :  5.02133e-06
 Reference value :  5.02290e-06
 Reference value :  5.02453e-06
 Reference value :  5.02591e-06
 Reference value :  5.02741e-06
 Reference value :  5.02860e-06
 Reference value :  5.02991e-06
 Reference value :  5.03182e-06
 Reference value :  5.03361e-06
 Reference value :  5.03668e-06
 Reference value :  5.04132e-06
 Reference value :  5.04826e-06
 Reference value :  5.05928e-06
 Reference value :  5.07083e-06
 Reference value :  5.08471e-06
 Reference value :  5.10198e-06
 Reference value :  5.12054e-06
 Reference value :  5.15135e-06
 Reference value :  5.19295e-06
 Reference value :  5.25010e-06
 Reference value :  5.25011e-06
 Reference value :  5.25013e-06
 Reference value :  5.25017e-06
 Reference value :  5.25020e-06
 Reference value :  5.25020e-06
 Reference value :  5.25020e-06
 Reference value :  5.25021e-06
 Reference value :  5.25021e-06
 Reference value :  5.25022e-06
 Reference value :  5.25025e-06
 Reference value :  5.25029e-06
 Reference value :  5.25039e-06
 Reference value :  5.25057e-06
 Reference value :  5.25090e-06
 Reference value :  5.25156e-06
 Reference value :  5.25216e-06
 Reference value :  5.25279e-06
 Reference value :  5.25350e-06
 Reference value :  5.25441e-06
 Reference value :  5.25516e-06
 Reference value :  5.25601e-06
 Reference value :  5.25687e-06
 Reference value :  5.25777e-06
 Reference value :  5.25896e-06
 Reference value :  5.26087e-06
 Reference value :  5.26326e-06
 Reference value :  5.26642e-06
 Reference value :  5.27070e-06
 Reference value :  5.27771e-06
 Reference value :  5.29172e-06
 Reference value :  5.31816e-06
 Reference value :  5.37104e-06
 Reference value :  5.47678e-06
 Reference value :  5.50000e-06
 Reference value :  5.50001e-06
 Reference value :  5.50003e-06
 Reference value :  5.50007e-06
 Reference value :  5.50010e-06
 Reference value :  5.50010e-06
 Reference value :  5.50011e-06
 Reference value :  5.50013e-06
 Reference value :  5.50016e-06
 Reference value :  5.50023e-06
 Reference value :  5.50037e-06
 Reference value :  5.50057e-06
 Reference value :  5.50093e-06
 Reference value :  5.50143e-06
 Reference value :  5.50196e-06
 Reference value :  5.50260e-06
 Reference value :  5.50337e-06
 Reference value :  5.50412e-06
 Reference value :  5.50493e-06
 Reference value :  5.50583e-06
 Reference value :  5.50675e-06
 Reference value :  5.50793e-06
 Reference value :  5.50912e-06
 Reference value :  5.51035e-06
 Reference value :  5.51161e-06
 Reference value :  5.51321e-06
 Reference value :  5.51470e-06
 Reference value :  5.51625e-06
 Reference value :  5.51805e-06
 Reference value :  5.52005e-06
 Reference value :  5.52359e-06
 Reference value :  5.52878e-06
 Reference value :  5.53847e-06
 Reference value :  5.55653e-06
 Reference value :  5.58990e-06
 Reference value :  5.65615e-06
 Reference value :  5.75010e-06
 Reference value :  5.75011e-06
 Reference value :  5.75013e-06
 Reference value :  5.75017e-06
 Reference value :  5.75020e-06
 Reference value :  5.75020e-06
 Reference value :  5.75020e-06
 Reference value :  5.75021e-06
 Reference value :  5.75021e-06
 Reference value :  5.75022e-06
 Reference value :  5.75025e-06
 Reference value :  5.75029e-06
 Reference value :  5.75039e-06
 Reference value :  5.75057e-06
 Reference value :  5.75090e-06
 Reference value :  5.75156e-06
 Reference value :  5.75216e-06
 Reference value :  5.75279e-06
 Reference value :  5.75349e-06
 Reference value :  5.75440e-06
 Reference value :  5.75514e-06
 Reference value :  5.75598e-06
 Reference value :  5.75670e-06
 Reference value :  5.75750e-06
 Reference value :  5.75853e-06
 Reference value :  5.75963e-06
 Reference value :  5.76183e-06
 Reference value :  5.76414e-06
 Reference value :  5.76821e-06
 Reference value :  5.77256e-06
 Reference value :  5.78128e-06
 Reference value :  5.79871e-06
 Reference value :  5.83356e-06
 Reference value :  5.90328e-06
 Reference value :  6.00000e-06
 Reference value :  6.00001e-06
 Reference value :  6.00003e-06
 Reference value :  6.00007e-06
 Reference value :  6.00010e-06
 Reference value :  6.00010e-06
 Reference value :  6.00011e-06
 Reference value :  6.00013e-06
 Reference value :  6.00016e-06
 Reference value :  6.00023e-06
 Reference value :  6.00037e-06
 Reference value :  6.00057e-06
 Reference value :  6.00093e-06
 Reference value :  6.00143e-06
 Reference value :  6.00196e-06
 Reference value :  6.00260e-06
 Reference value :  6.00337e-06
 Reference value :  6.00412e-06
 Reference value :  6.00497e-06
 Reference value :  6.00575e-06
 Reference value :  6.00655e-06
 Reference value :  6.00731e-06
 Reference value :  6.00820e-06
 Reference value :  6.00910e-06
 Reference value :  6.01026e-06
 Reference value :  6.01205e-06
 Reference value :  6.01418e-06
 Reference value :  6.01683e-06
 Reference value :  6.01900e-06
 Reference value :  6.02133e-06
 Reference value :  6.02301e-06
 Reference value :  6.02458e-06
 Reference value :  6.02597e-06
 Reference value :  6.02745e-06
 Reference value :  6.02923e-06
 Reference value :  6.03129e-06
 Reference value :  6.03397e-06
 Reference value :  6.03745e-06
 Reference value :  6.04377e-06
 Reference value :  6.05290e-06
 Reference value :  6.06161e-06
 Reference value :  6.07904e-06
 Reference value :  6.09620e-06
 Reference value :  6.12669e-06
 Reference value :  6.18102e-06
 Reference value :  6.25010e-06
 Reference value :  6.25011e-06
 Reference value :  6.25013e-06
 Reference value :  6.25017e-06
 Reference value :  6.25020e-06
 Reference value :  6.25020e-06
 Reference value :  6.25020e-06
 Reference value :  6.25021e-06
 Reference value :  6.25021e-06
 Reference value :  6.25022e-06
 Reference value :  6.25025e-06
 Reference value :  6.25029e-06
 Reference value :  6.25039e-06
 Reference value :  6.25058e-06
 Reference value :  6.25091e-06
 Reference value :  6.25157e-06
 Reference value :  6.25218e-06
 Reference value :  6.25282e-06
 Reference value :  6.25352e-06
 Reference value :  6.25442e-06
 Reference value :  6.25516e-06
 Reference value :  6.25599e-06
 Reference value :  6.25683e-06
 Reference value :  6.25772e-06
 Reference value :  6.25892e-06
 Reference value :  6.26073e-06
 Reference value :  6.26320e-06
 Reference value :  6.26625e-06
 Reference value :  6.27057e-06
 Reference value :  6.27713e-06
 Reference value :  6.29025e-06
 Reference value :  6.31612e-06
 Reference value :  6.36786e-06
 Reference value :  6.47134e-06
 Reference value :  6.50000e-06
 Reference value :  6.50001e-06
 Reference value :  6.50003e-06
 Reference value :  6.50007e-06
 Reference value :  6.50010e-06
 Reference value :  6.50010e-06
 Reference value :  6.50011e-06
 Reference value :  6.50013e-06
 Reference value :  6.50016e-06
 Reference value :  6.50023e-06
 Reference value :  6.50037e-06
 Reference value :  6.50057e-06
 Reference value :  6.50093e-06
 Reference value :  6.50143e-06
 Reference value :  6.50196e-06
 Reference value :  6.50260e-06
 Reference value :  6.50337e-06
 Reference value :  6.50412e-06
 Reference value :  6.50492e-06
 Reference value :  6.50581e-06
 Reference value :  6.50674e-06
 Reference value :  6.50783e-06
 Reference value :  6.50921e-06
 Reference value :  6.51040e-06
 Reference value :  6.51167e-06
 Reference value :  6.51352e-06
 Reference value :  6.51522e-06
 Reference value :  6.51687e-06
 Reference value :  6.51887e-06
 Reference value :  6.52106e-06
 Reference value :  6.52467e-06
 Reference value :  6.52996e-06
 Reference value :  6.53911e-06
 Reference value :  6.55555e-06
 Reference value :  6.58459e-06
 Reference value :  6.63929e-06
 Reference value :  6.73953e-06
 Reference value :  6.75010e-06
 Reference value :  6.75011e-06
 Reference value :  6.75013e-06
 Reference value :  6.75017e-06
 Reference value :  6.75020e-06
 Reference value :  6.75020e-06
 Reference value :  6.75020e-06
 Reference value :  6.75021e-06
 Reference value :  6.75021e-06
 Reference value :  6.75022e-06
 Reference value :  6.75025e-06
 Reference value :  6.75029e-06
 Reference value :  6.75039e-06
 Reference value :  6.75058e-06
 Reference value :  6.75091e-06
 Reference value :  6.75158e-06
 Reference value :  6.75219e-06
 Reference value :  6.75283e-06
 Reference value :  6.75353e-06
 Reference value :  6.75443e-06
 Reference value :  6.75514e-06
 Reference value :  6.75595e-06
 Reference value :  6.75667e-06
 Reference value :  6.75746e-06
 Reference value :  6.75847e-06
 Reference value :  6.75955e-06
 Reference value :  6.76171e-06
 Reference value :  6.76400e-06
 Reference value :  6.76801e-06
 Reference value :  6.77230e-06
 Reference value :  6.78088e-06
 Reference value :  6.79804e-06
 Reference value :  6.83235e-06
 Reference value :  6.90099e-06
 Reference value :  7.00000e-06
 Reference value :  7.00001e-06
 Reference value :  7.00003e-06
 Reference value :  7.00007e-06
 Reference value :  7.00010e-06
 Reference value :  7.00010e-06
 Reference value :  7.00011e-06
 Reference value :  7.00013e-06
 Reference value :  7.00016e-06
 Reference value :  7.00023e-06
 Reference value :  7.00037e-06
 Reference value :  7.00057e-06
 Reference value :  7.00093e-06
 Reference value :  7.00143e-06
 Reference value :  7.00196e-06
 Reference value :  7.00260e-06
 Reference value :  7.00336e-06
 Reference value :  7.00412e-06
 Reference value :  7.00497e-06
 Reference value :  7.00572e-06
 Reference value :  7.00653e-06
 Reference value :  7.00731e-06
 Reference value :  7.00826e-06
 Reference value :  7.00915e-06
 Reference value :  7.01037e-06
 Reference value :  7.01200e-06
 Reference value :  7.01424e-06
 Reference value :  7.01717e-06
 Reference value :  7.01947e-06
 Reference value :  7.02190e-06
 Reference value :  7.02367e-06
 Reference value :  7.02529e-06
 Reference value :  7.02682e-06
 Reference value :  7.02839e-06
 Reference value :  7.03020e-06
 Reference value :  7.03272e-06
 Reference value :  7.03537e-06
 Reference value :  7.03996e-06
 Reference value :  7.04429e-06
 Reference value :  7.05176e-06
 Reference value :  7.06083e-06
 Reference value :  7.07853e-06
 Reference value :  7.10459e-06
 Reference value :  7.15670e-06
 Reference value :  7.24457e-06
 Reference value :  7.25010e-06
 Reference value :  7.25011e-06
 Reference value :  7.25013e-06
 Reference value :  7.25017e-06
 Reference value :  7.25020e-06
 Reference value :  7.25020e-06
 Reference value :  7.25020e-06
 Reference value :  7.25021e-06
 Reference value :  7.25021e-06
 Reference value :  7.25022e-06
 Reference value :  7.25025e-06
 Reference value :  7.25029e-06
 Reference value :  7.25039e-06
 Reference value :  7.25058e-06
 Reference value :  7.25092e-06
 Reference value :  7.25158e-06
 Reference value :  7.25219e-06
 Reference value :  7.25284e-06
 Reference value :  7.25354e-06
 Reference value :  7.25443e-06
 Reference value :  7.25513e-06
 Reference value :  7.25593e-06
 Reference value :  7.25679e-06
 Reference value :  7.25767e-06
 Reference value :  7.25883e-06
 Reference value :  7.26071e-06
 Reference value :  7.26319e-06
 Reference value :  7.26620e-06
 Reference value :  7.27052e-06
 Reference value :  7.27697e-06
 Reference value :  7.28987e-06
 Reference value :  7.31567e-06
 Reference value :  7.36727e-06
 Reference value :  7.47048e-06
 Reference value :  7.50000e-06
 Reference value :  7.50001e-06
 Reference value :  7.50003e-06
 Reference value :  7.50007e-06
 Reference value :  7.50010e-06
 Reference value :  7.50010e-06
 Reference value :  7.50011e-06
 Reference value :  7.50013e-06
 Reference value :  7.50016e-06
 Reference value :  7.50023e-06
 Reference value :  7.50037e-06
 Reference value :  7.50056e-06
 Reference value :  7.50092e-06
 Reference value :  7.50145e-06
 Reference value :  7.50199e-06
 Reference value :  7.50264e-06
 Reference value :  7.50341e-06
 Reference value :  7.50418e-06
 Reference value :  7.50497e-06
 Reference value :  7.50594e-06
 Reference value :  7.50684e-06
 Reference value :  7.50804e-06
 Reference value :  7.50928e-06
 Reference value :  7.51052e-06
 Reference value :  7.51180e-06
 Reference value :  7.51346e-06
 Reference value :  7.51490e-06
 Reference value :  7.51644e-06
 Reference value :  7.51807e-06
 Reference value :  7.51992e-06
 Reference value :  7.52332e-06
 Reference value :  7.52826e-06
 Reference value :  7.53815e-06
 Reference value :  7.55704e-06
 Reference value :  7.59354e-06
 Reference value :  7.66653e-06
 Reference value :  7.75010e-06
 Reference value :  7.75011e-06
 Reference value :  7.75013e-06
 Reference value :  7.75017e-06
 Reference value :  7.75020e-06
 Reference value :  7.75020e-06
 Reference value :  7.75020e-06
 Reference value :  7.75021e-06
 Reference value :  7.75021e-06
 Reference value :  7.75022e-06
 Reference value :  7.75025e-06
 Reference value :  7.75029e-06
 Reference value :  7.75039e-06
 Reference value :  7.75057e-06
 Reference value :  7.75091e-06
 Reference value :  7.75157e-06
 Reference value :  7.75217e-06
 Reference value :  7.75282e-06
 Reference value :  7.75352e-06
 Reference value :  7.75442e-06
 Reference value :  7.75512e-06
 Reference value :  7.75591e-06
 Reference value :  7.75663e-06
 Reference value :  7.75741e-06
 Reference value :  7.75844e-06
 Reference value :  7.75953e-06
 Reference value :  7.76171e-06
 Reference value :  7.76402e-06
 Reference value :  7.76804e-06
 Reference value :  7.77236e-06
 Reference value :  7.78099e-06
 Reference value :  7.79825e-06
 Reference value :  7.83278e-06
 Reference value :  7.90183e-06
 Reference value :  8.00000e-06
 Reference value :  8.00001e-06
 Reference value :  8.00003e-06
 Reference value :  8.00007e-06
 Reference value :  8.00010e-06
 Reference value :  8.00010e-06
 Reference value :  8.00011e-06
 Reference value :  8.00013e-06
 Reference value :  8.00016e-06
 Reference value :  8.00023e-06
 Reference value :  8.00037e-06
 Reference value :  8.00056e-06
 Reference value :  8.00092e-06
 Reference value :  8.00145e-06
 Reference value :  8.00199e-06
 Reference value :  8.00265e-06
 Reference value :  8.00341e-06
 Reference value :  8.00418e-06
 Reference value :  8.00505e-06
 Reference value :  8.00587e-06
 Reference value :  8.00666e-06
 Reference value :  8.00742e-06
 Reference value :  8.00831e-06
 Reference value :  8.00922e-06
 Reference value :  8.01040e-06
 Reference value :  8.01220e-06
 Reference value :  8.01438e-06
 Reference value :  8.01717e-06
 Reference value :  8.01983e-06
 Reference value :  8.02252e-06
 Reference value :  8.02523e-06
 Reference value :  8.02812e-06
 Reference value :  8.03391e-06
 Reference value :  8.04245e-06
 Reference value :  8.05443e-06
 Reference value :  8.07670e-06
 Reference value :  8.12123e-06
 Reference value :  8.21030e-06
 Reference value :  8.25010e-06
 Reference value :  8.25011e-06
 Reference value :  8.25013e-06
 Reference value :  8.25017e-06
 Reference value :  8.25020e-06
 Reference value :  8.25020e-06
 Reference value :  8.25020e-06
 Reference value :  8.25021e-06
 Reference value :  8.25021e-06
 Reference value :  8.25022e-06
 Reference value :  8.25025e-06
 Reference value :  8.25029e-06
 Reference value :  8.25039e-06
 Reference value :  8.25057e-06
 Reference value :  8.25095e-06
 Reference value :  8.25158e-06
 Reference value :  8.25221e-06
 Reference value :  8.25286e-06
 Reference value :  8.25356e-06
 Reference value :  8.25444e-06
 Reference value :  8.25540e-06
 Reference value :  8.25662e-06
 Reference value :  8.25791e-06
 Reference value :  8.25938e-06
 Reference value :  8.26204e-06
 Reference value :  8.26458e-06
 Reference value :  8.26858e-06
 Reference value :  8.27332e-06
 Reference value :  8.28280e-06
 Reference value :  8.30176e-06
 Reference value :  8.33968e-06
 Reference value :  8.41553e-06
 Reference value :  8.50000e-06
No. of Data Rows : 1329
ngspice-44 done
