
Note: Compatibility modes selected: hs a


Circuit: ** sch_path: /home/ece/cace/sar-adc-using-sky130-pdk/runs/run_2025-09-09_04-49-06/parameters/sampling_rate/run_08/sampling_rate.sch

option SCALE: Scale is set to 1e-06 for instance and model parameters
option SCALE: Scale is set to 1e-06 for instance and model parameters
option SCALE: Scale is set to 1e-06 for instance and model parameters
option SCALE: Scale is set to 1e-06 for instance and model parameters
Doing analysis at TEMP = 27.000000 and TNOM = 27.000000

Using KLU as Direct Linear Solver
Operating point simulation skipped by 'uic',
  now using transient initial conditions.
 Reference value :  1.00000e-12
 Reference value :  1.02772e-12
 Reference value :  1.08316e-12
 Reference value :  1.19404e-12
 Reference value :  1.33849e-12
 Reference value :  1.62739e-12
 Reference value :  2.20519e-12
 Reference value :  3.06286e-12
 Reference value :  3.96325e-12
 Reference value :  6.88142e-12
 Reference value :  1.00262e-11
 Reference value :  1.36804e-11
 Reference value :  2.03290e-11
 Reference value :  3.61323e-11
 Reference value :  6.49732e-11
 Reference value :  8.45627e-11
 Reference value :  1.01301e-10
 Reference value :  1.03904e-10
 Reference value :  1.09109e-10
 Reference value :  1.40339e-10
 Reference value :  1.81980e-10
 Reference value :  4.16883e-10
 Reference value :  5.86154e-10
 Reference value :  8.57928e-10
 Reference value :  1.23481e-09
 Reference value :  1.69411e-09
 Reference value :  2.43387e-09
 Reference value :  3.15826e-09
 Reference value :  3.82371e-09
 Reference value :  4.61745e-09
 Reference value :  5.46744e-09
 Reference value :  6.38658e-09
 Reference value :  7.62664e-09
 Reference value :  8.89991e-09
 Reference value :  1.00761e-08
 Reference value :  1.08716e-08
 Reference value :  1.17068e-08
 Reference value :  1.26952e-08
 Reference value :  1.36928e-08
 Reference value :  1.56148e-08
 Reference value :  1.80943e-08
 Reference value :  2.09323e-08
 Reference value :  2.36624e-08
 Reference value :  2.62354e-08
 Reference value :  2.90244e-08
 Reference value :  3.18358e-08
 Reference value :  3.48634e-08
 Reference value :  4.09185e-08
 Reference value :  4.71394e-08
 Reference value :  5.95811e-08
 Reference value :  8.44646e-08
 Reference value :  1.31969e-07
 Reference value :  1.87450e-07
 Reference value :  2.50100e-07
 Reference value :  2.50110e-07
 Reference value :  2.50130e-07
 Reference value :  2.50170e-07
 Reference value :  2.50200e-07
 Reference value :  2.50201e-07
 Reference value :  2.50202e-07
 Reference value :  2.50204e-07
 Reference value :  2.50208e-07
 Reference value :  2.50216e-07
 Reference value :  2.50233e-07
 Reference value :  2.50267e-07
 Reference value :  2.50335e-07
 Reference value :  2.50412e-07
 Reference value :  2.50567e-07
 Reference value :  2.50716e-07
 Reference value :  2.51014e-07
 Reference value :  2.51339e-07
 Reference value :  2.51860e-07
 Reference value :  2.52428e-07
 Reference value :  2.53220e-07
 Reference value :  2.54043e-07
 Reference value :  2.55121e-07
 Reference value :  2.55873e-07
 Reference value :  2.56730e-07
 Reference value :  2.57735e-07
 Reference value :  2.58843e-07
 Reference value :  2.60168e-07
 Reference value :  2.64459e-07
 Reference value :  2.72808e-07
 Reference value :  2.82320e-07
 Reference value :  2.98819e-07
 Reference value :  3.27036e-07
 Reference value :  3.83471e-07
 Reference value :  4.96341e-07
 Reference value :  5.00000e-07
 Reference value :  5.00010e-07
 Reference value :  5.00030e-07
 Reference value :  5.00070e-07
 Reference value :  5.00100e-07
 Reference value :  5.00104e-07
 Reference value :  5.00112e-07
 Reference value :  5.00129e-07
 Reference value :  5.00162e-07
 Reference value :  5.00229e-07
 Reference value :  5.00362e-07
 Reference value :  5.00537e-07
 Reference value :  5.00888e-07
 Reference value :  5.01502e-07
 Reference value :  5.02193e-07
 Reference value :  5.02817e-07
 Reference value :  5.03504e-07
 Reference value :  5.04212e-07
 Reference value :  5.05148e-07
 Reference value :  5.06118e-07
 Reference value :  5.07100e-07
 Reference value :  5.08379e-07
 Reference value :  5.09807e-07
 Reference value :  5.11739e-07
 Reference value :  5.14069e-07
 Reference value :  5.15916e-07
 Reference value :  5.17905e-07
 Reference value :  5.19991e-07
 Reference value :  5.22395e-07
 Reference value :  5.25105e-07
 Reference value :  5.27935e-07
 Reference value :  5.33189e-07
 Reference value :  5.41575e-07
 Reference value :  5.51296e-07
 Reference value :  5.70739e-07
 Reference value :  6.09625e-07
 Reference value :  6.42360e-07
 Reference value :  6.64929e-07
 Reference value :  6.80249e-07
 Reference value :  6.92420e-07
 Reference value :  7.00857e-07
 Reference value :  7.10827e-07
 Reference value :  7.20099e-07
 Reference value :  7.32404e-07
 Reference value :  7.48040e-07
 Reference value :  7.50100e-07
 Reference value :  7.50110e-07
 Reference value :  7.50130e-07
 Reference value :  7.50170e-07
 Reference value :  7.50200e-07
 Reference value :  7.50201e-07
 Reference value :  7.50202e-07
 Reference value :  7.50205e-07
 Reference value :  7.50211e-07
 Reference value :  7.50248e-07
 Reference value :  7.50297e-07
 Reference value :  7.50395e-07
 Reference value :  7.50590e-07
 Reference value :  7.50977e-07
 Reference value :  7.51389e-07
 Reference value :  7.51911e-07
 Reference value :  7.52518e-07
 Reference value :  7.53316e-07
 Reference value :  7.54226e-07
 Reference value :  7.55423e-07
 Reference value :  7.56393e-07
 Reference value :  7.57402e-07
 Reference value :  7.58426e-07
 Reference value :  7.59543e-07
 Reference value :  7.60780e-07
 Reference value :  7.62049e-07
 Reference value :  7.63459e-07
 Reference value :  7.65562e-07
 Reference value :  7.67842e-07
 Reference value :  7.71488e-07
 Reference value :  7.77226e-07
 Reference value :  7.88700e-07
 Reference value :  8.11650e-07
 Reference value :  8.55662e-07
 Reference value :  1.00000e-06
 Reference value :  1.00003e-06
 Reference value :  1.00007e-06
 Reference value :  1.00010e-06
 Reference value :  1.00010e-06
 Reference value :  1.00011e-06
 Reference value :  1.00013e-06
 Reference value :  1.00016e-06
 Reference value :  1.00023e-06
 Reference value :  1.00036e-06
 Reference value :  1.00054e-06
 Reference value :  1.00089e-06
 Reference value :  1.00150e-06
 Reference value :  1.00219e-06
 Reference value :  1.00282e-06
 Reference value :  1.00346e-06
 Reference value :  1.00415e-06
 Reference value :  1.00499e-06
 Reference value :  1.00589e-06
 Reference value :  1.00677e-06
 Reference value :  1.00766e-06
 Reference value :  1.00866e-06
 Reference value :  1.00969e-06
 Reference value :  1.01063e-06
 Reference value :  1.01208e-06
 Reference value :  1.01359e-06
 Reference value :  1.01596e-06
 Reference value :  1.01768e-06
 Reference value :  1.01951e-06
 Reference value :  1.02118e-06
 Reference value :  1.02265e-06
 Reference value :  1.02413e-06
 Reference value :  1.02573e-06
 Reference value :  1.02719e-06
 Reference value :  1.02903e-06
 Reference value :  1.03119e-06
 Reference value :  1.03359e-06
 Reference value :  1.03801e-06
 Reference value :  1.04421e-06
 Reference value :  1.05217e-06
 Reference value :  1.06384e-06
 Reference value :  1.07939e-06
 Reference value :  1.09476e-06
 Reference value :  1.11113e-06
 Reference value :  1.12200e-06
 Reference value :  1.13233e-06
 Reference value :  1.14512e-06
 Reference value :  1.15863e-06
 Reference value :  1.17826e-06
 Reference value :  1.20051e-06
 Reference value :  1.23012e-06
 Reference value :  1.25010e-06
 Reference value :  1.25011e-06
 Reference value :  1.25013e-06
 Reference value :  1.25017e-06
 Reference value :  1.25020e-06
 Reference value :  1.25020e-06
 Reference value :  1.25020e-06
 Reference value :  1.25021e-06
 Reference value :  1.25021e-06
 Reference value :  1.25022e-06
 Reference value :  1.25025e-06
 Reference value :  1.25039e-06
 Reference value :  1.25058e-06
 Reference value :  1.25092e-06
 Reference value :  1.25135e-06
 Reference value :  1.25187e-06
 Reference value :  1.25248e-06
 Reference value :  1.25324e-06
 Reference value :  1.25412e-06
 Reference value :  1.25531e-06
 Reference value :  1.25620e-06
 Reference value :  1.25714e-06
 Reference value :  1.25821e-06
 Reference value :  1.25977e-06
 Reference value :  1.26119e-06
 Reference value :  1.26374e-06
 Reference value :  1.26664e-06
 Reference value :  1.27210e-06
 Reference value :  1.28302e-06
 Reference value :  1.30254e-06
 Reference value :  1.34158e-06
 Reference value :  1.41630e-06
 Reference value :  1.50000e-06
 Reference value :  1.50001e-06
 Reference value :  1.50003e-06
 Reference value :  1.50007e-06
 Reference value :  1.50010e-06
 Reference value :  1.50010e-06
 Reference value :  1.50013e-06
 Reference value :  1.50016e-06
 Reference value :  1.50023e-06
 Reference value :  1.50036e-06
 Reference value :  1.50053e-06
 Reference value :  1.50087e-06
 Reference value :  1.50145e-06
 Reference value :  1.50221e-06
 Reference value :  1.50288e-06
 Reference value :  1.50356e-06
 Reference value :  1.50426e-06
 Reference value :  1.50524e-06
 Reference value :  1.50619e-06
 Reference value :  1.50715e-06
 Reference value :  1.50858e-06
 Reference value :  1.50996e-06
 Reference value :  1.51127e-06
 Reference value :  1.51268e-06
 Reference value :  1.51422e-06
 Reference value :  1.51590e-06
 Reference value :  1.51747e-06
 Reference value :  1.51953e-06
 Reference value :  1.52175e-06
 Reference value :  1.53150e-06
 Reference value :  1.56069e-06
 Reference value :  1.59398e-06
 Reference value :  1.65728e-06
 Reference value :  1.75011e-06
 Reference value :  1.75013e-06
 Reference value :  1.75017e-06
 Reference value :  1.75020e-06
 Reference value :  1.75020e-06
 Reference value :  1.75020e-06
 Reference value :  1.75021e-06
 Reference value :  1.75021e-06
 Reference value :  1.75022e-06
 Reference value :  1.75025e-06
 Reference value :  1.75029e-06
 Reference value :  1.75039e-06
 Reference value :  1.75058e-06
 Reference value :  1.75092e-06
 Reference value :  1.75135e-06
 Reference value :  1.75187e-06
 Reference value :  1.75248e-06
 Reference value :  1.75324e-06
 Reference value :  1.75411e-06
 Reference value :  1.75529e-06
 Reference value :  1.75619e-06
 Reference value :  1.75714e-06
 Reference value :  1.75818e-06
 Reference value :  1.75930e-06
 Reference value :  1.76297e-06
 Reference value :  1.76560e-06
 Reference value :  1.77023e-06
 Reference value :  1.79539e-06
 Reference value :  1.89411e-06
 Reference value :  2.00000e-06
 Reference value :  2.00001e-06
 Reference value :  2.00003e-06
 Reference value :  2.00007e-06
 Reference value :  2.00010e-06
 Reference value :  2.00010e-06
 Reference value :  2.00013e-06
 Reference value :  2.00023e-06
 Reference value :  2.00036e-06
 Reference value :  2.00053e-06
 Reference value :  2.00087e-06
 Reference value :  2.00145e-06
 Reference value :  2.00221e-06
 Reference value :  2.00288e-06
 Reference value :  2.00356e-06
 Reference value :  2.00427e-06
 Reference value :  2.00525e-06
 Reference value :  2.00603e-06
 Reference value :  2.00686e-06
 Reference value :  2.00785e-06
 Reference value :  2.00893e-06
 Reference value :  2.00992e-06
 Reference value :  2.01096e-06
 Reference value :  2.01237e-06
 Reference value :  2.01398e-06
 Reference value :  2.01628e-06
 Reference value :  2.01849e-06
 Reference value :  2.02053e-06
 Reference value :  2.02215e-06
 Reference value :  2.02370e-06
 Reference value :  2.02530e-06
 Reference value :  2.02697e-06
 Reference value :  2.02890e-06
 Reference value :  2.03082e-06
 Reference value :  2.03794e-06
 Reference value :  2.05943e-06
 Reference value :  2.10529e-06
 Reference value :  2.14318e-06
 Reference value :  2.20339e-06
 Reference value :  2.25010e-06
 Reference value :  2.25011e-06
 Reference value :  2.25013e-06
 Reference value :  2.25017e-06
 Reference value :  2.25020e-06
 Reference value :  2.25020e-06
 Reference value :  2.25021e-06
 Reference value :  2.25021e-06
 Reference value :  2.25022e-06
 Reference value :  2.25025e-06
 Reference value :  2.25029e-06
 Reference value :  2.25039e-06
 Reference value :  2.25058e-06
 Reference value :  2.25092e-06
 Reference value :  2.25135e-06
 Reference value :  2.25187e-06
 Reference value :  2.25248e-06
 Reference value :  2.25324e-06
 Reference value :  2.25411e-06
 Reference value :  2.25531e-06
 Reference value :  2.25620e-06
 Reference value :  2.25715e-06
 Reference value :  2.25824e-06
 Reference value :  2.25978e-06
 Reference value :  2.26376e-06
 Reference value :  2.27219e-06
 Reference value :  2.30256e-06
 Reference value :  2.41490e-06
 Reference value :  2.50000e-06
 Reference value :  2.50001e-06
 Reference value :  2.50003e-06
 Reference value :  2.50010e-06
 Reference value :  2.50010e-06
 Reference value :  2.50011e-06
 Reference value :  2.50013e-06
 Reference value :  2.50016e-06
 Reference value :  2.50036e-06
 Reference value :  2.50053e-06
 Reference value :  2.50087e-06
 Reference value :  2.50145e-06
 Reference value :  2.50221e-06
 Reference value :  2.50288e-06
 Reference value :  2.50355e-06
 Reference value :  2.50426e-06
 Reference value :  2.50524e-06
 Reference value :  2.50619e-06
 Reference value :  2.50718e-06
 Reference value :  2.50863e-06
 Reference value :  2.51001e-06
 Reference value :  2.51130e-06
 Reference value :  2.51267e-06
 Reference value :  2.51419e-06
 Reference value :  2.51586e-06
 Reference value :  2.51743e-06
 Reference value :  2.51962e-06
 Reference value :  2.52192e-06
 Reference value :  2.52610e-06
 Reference value :  2.54341e-06
 Reference value :  2.60015e-06
 Reference value :  2.75010e-06
 Reference value :  2.75013e-06
 Reference value :  2.75020e-06
 Reference value :  2.75020e-06
 Reference value :  2.75020e-06
 Reference value :  2.75021e-06
 Reference value :  2.75021e-06
 Reference value :  2.75022e-06
 Reference value :  2.75025e-06
 Reference value :  2.75029e-06
 Reference value :  2.75039e-06
 Reference value :  2.75058e-06
 Reference value :  2.75092e-06
 Reference value :  2.75134e-06
 Reference value :  2.75187e-06
 Reference value :  2.75248e-06
 Reference value :  2.75323e-06
 Reference value :  2.75411e-06
 Reference value :  2.75529e-06
 Reference value :  2.75619e-06
 Reference value :  2.75818e-06
 Reference value :  2.75930e-06
 Reference value :  2.76052e-06
 Reference value :  2.76294e-06
 Reference value :  2.76557e-06
 Reference value :  2.77018e-06
 Reference value :  2.79510e-06
 Reference value :  2.89286e-06
 Reference value :  3.00000e-06
 Reference value :  3.00001e-06
 Reference value :  3.00003e-06
 Reference value :  3.00007e-06
 Reference value :  3.00010e-06
 Reference value :  3.00010e-06
 Reference value :  3.00011e-06
 Reference value :  3.00013e-06
 Reference value :  3.00016e-06
 Reference value :  3.00023e-06
 Reference value :  3.00036e-06
 Reference value :  3.00053e-06
 Reference value :  3.00087e-06
 Reference value :  3.00145e-06
 Reference value :  3.00221e-06
 Reference value :  3.00288e-06
 Reference value :  3.00356e-06
 Reference value :  3.00426e-06
 Reference value :  3.00525e-06
 Reference value :  3.00603e-06
 Reference value :  3.00685e-06
 Reference value :  3.00785e-06
 Reference value :  3.00892e-06
 Reference value :  3.01001e-06
 Reference value :  3.01102e-06
 Reference value :  3.01246e-06
 Reference value :  3.01411e-06
 Reference value :  3.01671e-06
 Reference value :  3.01868e-06
 Reference value :  3.02078e-06
 Reference value :  3.02212e-06
 Reference value :  3.02351e-06
 Reference value :  3.02483e-06
 Reference value :  3.02632e-06
 Reference value :  3.02822e-06
 Reference value :  3.02996e-06
 Reference value :  3.03279e-06
 Reference value :  3.03605e-06
 Reference value :  3.04257e-06
 Reference value :  3.05461e-06
 Reference value :  3.07001e-06
 Reference value :  3.09055e-06
 Reference value :  3.12678e-06
 Reference value :  3.15588e-06
 Reference value :  3.18317e-06
 Reference value :  3.20150e-06
 Reference value :  3.21729e-06
 Reference value :  3.23242e-06
 Reference value :  3.24472e-06
 Reference value :  3.25010e-06
 Reference value :  3.25011e-06
 Reference value :  3.25013e-06
 Reference value :  3.25020e-06
 Reference value :  3.25020e-06
 Reference value :  3.25020e-06
 Reference value :  3.25021e-06
 Reference value :  3.25022e-06
 Reference value :  3.25030e-06
 Reference value :  3.25059e-06
 Reference value :  3.25094e-06
 Reference value :  3.25136e-06
 Reference value :  3.25188e-06
 Reference value :  3.25249e-06
 Reference value :  3.25325e-06
 Reference value :  3.25413e-06
 Reference value :  3.25532e-06
 Reference value :  3.25623e-06
 Reference value :  3.25718e-06
 Reference value :  3.25826e-06
 Reference value :  3.25982e-06
 Reference value :  3.26128e-06
 Reference value :  3.26379e-06
 Reference value :  3.26680e-06
 Reference value :  3.27234e-06
 Reference value :  3.28341e-06
 Reference value :  3.30267e-06
 Reference value :  3.34120e-06
 Reference value :  3.39678e-06
 Reference value :  3.45624e-06
 Reference value :  3.50000e-06
 Reference value :  3.50001e-06
 Reference value :  3.50003e-06
 Reference value :  3.50007e-06
 Reference value :  3.50010e-06
 Reference value :  3.50010e-06
 Reference value :  3.50011e-06
 Reference value :  3.50013e-06
 Reference value :  3.50016e-06
 Reference value :  3.50023e-06
 Reference value :  3.50053e-06
 Reference value :  3.50087e-06
 Reference value :  3.50144e-06
 Reference value :  3.50221e-06
 Reference value :  3.50289e-06
 Reference value :  3.50356e-06
 Reference value :  3.50427e-06
 Reference value :  3.50525e-06
 Reference value :  3.50620e-06
 Reference value :  3.50718e-06
 Reference value :  3.50863e-06
 Reference value :  3.51001e-06
 Reference value :  3.51129e-06
 Reference value :  3.51265e-06
 Reference value :  3.51418e-06
 Reference value :  3.51584e-06
 Reference value :  3.51767e-06
 Reference value :  3.52369e-06
 Reference value :  3.52980e-06
 Reference value :  3.54203e-06
 Reference value :  3.56538e-06
 Reference value :  3.60702e-06
 Reference value :  3.69030e-06
 Reference value :  3.75010e-06
 Reference value :  3.75013e-06
 Reference value :  3.75020e-06
 Reference value :  3.75020e-06
 Reference value :  3.75021e-06
 Reference value :  3.75021e-06
 Reference value :  3.75022e-06
 Reference value :  3.75025e-06
 Reference value :  3.75030e-06
 Reference value :  3.75039e-06
 Reference value :  3.75059e-06
 Reference value :  3.75094e-06
 Reference value :  3.75136e-06
 Reference value :  3.75188e-06
 Reference value :  3.75249e-06
 Reference value :  3.75325e-06
 Reference value :  3.75413e-06
 Reference value :  3.75531e-06
 Reference value :  3.75623e-06
 Reference value :  3.75719e-06
 Reference value :  3.75822e-06
 Reference value :  3.75933e-06
 Reference value :  3.76055e-06
 Reference value :  3.76299e-06
 Reference value :  3.76566e-06
 Reference value :  3.77031e-06
 Reference value :  3.77877e-06
 Reference value :  3.79570e-06
 Reference value :  3.82926e-06
 Reference value :  3.89424e-06
 Reference value :  4.00000e-06
 Reference value :  4.00001e-06
 Reference value :  4.00003e-06
 Reference value :  4.00007e-06
 Reference value :  4.00010e-06
 Reference value :  4.00010e-06
 Reference value :  4.00011e-06
 Reference value :  4.00013e-06
 Reference value :  4.00016e-06
 Reference value :  4.00036e-06
 Reference value :  4.00053e-06
 Reference value :  4.00087e-06
 Reference value :  4.00145e-06
 Reference value :  4.00221e-06
 Reference value :  4.00288e-06
 Reference value :  4.00356e-06
 Reference value :  4.00427e-06
 Reference value :  4.00525e-06
 Reference value :  4.00603e-06
 Reference value :  4.00685e-06
 Reference value :  4.00785e-06
 Reference value :  4.00892e-06
 Reference value :  4.00993e-06
 Reference value :  4.01098e-06
 Reference value :  4.01233e-06
 Reference value :  4.01669e-06
 Reference value :  4.01868e-06
 Reference value :  4.02081e-06
 Reference value :  4.02232e-06
 Reference value :  4.02380e-06
 Reference value :  4.02519e-06
 Reference value :  4.02677e-06
 Reference value :  4.02842e-06
 Reference value :  4.03289e-06
 Reference value :  4.03740e-06
 Reference value :  4.04396e-06
 Reference value :  4.04989e-06
 Reference value :  4.05555e-06
 Reference value :  4.06204e-06
 Reference value :  4.06641e-06
 Reference value :  4.07125e-06
 Reference value :  4.07574e-06
 Reference value :  4.08132e-06
 Reference value :  4.08827e-06
 Reference value :  4.09426e-06
 Reference value :  4.11302e-06
 Reference value :  4.12834e-06
 Reference value :  4.15179e-06
 Reference value :  4.18665e-06
 Reference value :  4.24012e-06
 Reference value :  4.25010e-06
 Reference value :  4.25011e-06
 Reference value :  4.25013e-06
 Reference value :  4.25017e-06
 Reference value :  4.25020e-06
 Reference value :  4.25020e-06
 Reference value :  4.25020e-06
 Reference value :  4.25021e-06
 Reference value :  4.25021e-06
 Reference value :  4.25022e-06
 Reference value :  4.25025e-06
 Reference value :  4.25029e-06
 Reference value :  4.25039e-06
 Reference value :  4.25058e-06
 Reference value :  4.25092e-06
 Reference value :  4.25134e-06
 Reference value :  4.25187e-06
 Reference value :  4.25248e-06
 Reference value :  4.25323e-06
 Reference value :  4.25411e-06
 Reference value :  4.25524e-06
 Reference value :  4.25616e-06
 Reference value :  4.25712e-06
 Reference value :  4.25818e-06
 Reference value :  4.25979e-06
 Reference value :  4.26130e-06
 Reference value :  4.26381e-06
 Reference value :  4.26675e-06
 Reference value :  4.27207e-06
 Reference value :  4.28270e-06
 Reference value :  4.30155e-06
 Reference value :  4.33909e-06
 Reference value :  4.40960e-06
 Reference value :  4.50000e-06
 Reference value :  4.50001e-06
 Reference value :  4.50003e-06
 Reference value :  4.50007e-06
 Reference value :  4.50010e-06
 Reference value :  4.50010e-06
 Reference value :  4.50011e-06
 Reference value :  4.50013e-06
 Reference value :  4.50016e-06
 Reference value :  4.50023e-06
 Reference value :  4.50036e-06
 Reference value :  4.50053e-06
 Reference value :  4.50087e-06
 Reference value :  4.50145e-06
 Reference value :  4.50221e-06
 Reference value :  4.50284e-06
 Reference value :  4.50350e-06
 Reference value :  4.50419e-06
 Reference value :  4.50515e-06
 Reference value :  4.50611e-06
 Reference value :  4.50705e-06
 Reference value :  4.50853e-06
 Reference value :  4.50989e-06
 Reference value :  4.51119e-06
 Reference value :  4.51260e-06
 Reference value :  4.51393e-06
 Reference value :  4.51546e-06
 Reference value :  4.51706e-06
 Reference value :  4.51881e-06
 Reference value :  4.52230e-06
 Reference value :  4.52930e-06
 Reference value :  4.54114e-06
 Reference value :  4.56481e-06
 Reference value :  4.60922e-06
 Reference value :  4.69806e-06
 Reference value :  4.75010e-06
 Reference value :  4.75011e-06
 Reference value :  4.75013e-06
 Reference value :  4.75017e-06
 Reference value :  4.75020e-06
 Reference value :  4.75020e-06
 Reference value :  4.75020e-06
 Reference value :  4.75021e-06
 Reference value :  4.75021e-06
 Reference value :  4.75022e-06
 Reference value :  4.75025e-06
 Reference value :  4.75030e-06
 Reference value :  4.75039e-06
 Reference value :  4.75059e-06
 Reference value :  4.75093e-06
 Reference value :  4.75136e-06
 Reference value :  4.75188e-06
 Reference value :  4.75249e-06
 Reference value :  4.75325e-06
 Reference value :  4.75413e-06
 Reference value :  4.75531e-06
 Reference value :  4.75623e-06
 Reference value :  4.75720e-06
 Reference value :  4.75822e-06
 Reference value :  4.75933e-06
 Reference value :  4.76056e-06
 Reference value :  4.76184e-06
 Reference value :  4.76324e-06
 Reference value :  4.76537e-06
 Reference value :  4.76769e-06
 Reference value :  4.77130e-06
 Reference value :  4.77700e-06
 Reference value :  4.78841e-06
 Reference value :  4.81121e-06
 Reference value :  4.85645e-06
 Reference value :  4.94693e-06
 Reference value :  5.00001e-06
 Reference value :  5.00003e-06
 Reference value :  5.00007e-06
 Reference value :  5.00010e-06
 Reference value :  5.00010e-06
 Reference value :  5.00011e-06
 Reference value :  5.00013e-06
 Reference value :  5.00016e-06
 Reference value :  5.00023e-06
 Reference value :  5.00036e-06
 Reference value :  5.00053e-06
 Reference value :  5.00087e-06
 Reference value :  5.00144e-06
 Reference value :  5.00221e-06
 Reference value :  5.00288e-06
 Reference value :  5.00356e-06
 Reference value :  5.00427e-06
 Reference value :  5.00524e-06
 Reference value :  5.00602e-06
 Reference value :  5.00684e-06
 Reference value :  5.00781e-06
 Reference value :  5.00872e-06
 Reference value :  5.00969e-06
 Reference value :  5.01066e-06
 Reference value :  5.01191e-06
 Reference value :  5.01360e-06
 Reference value :  5.01479e-06
 Reference value :  5.01618e-06
 Reference value :  5.01759e-06
 Reference value :  5.01924e-06
 Reference value :  5.02108e-06
 Reference value :  5.02255e-06
 Reference value :  5.02409e-06
 Reference value :  5.02554e-06
 Reference value :  5.02709e-06
 Reference value :  5.02883e-06
 Reference value :  5.03104e-06
 Reference value :  5.03337e-06
 Reference value :  5.03723e-06
 Reference value :  5.04188e-06
 Reference value :  5.04635e-06
 Reference value :  5.04976e-06
 Reference value :  5.05255e-06
 Reference value :  5.05496e-06
 Reference value :  5.05757e-06
 Reference value :  5.06082e-06
 Reference value :  5.07192e-06
 Reference value :  5.09868e-06
 Reference value :  5.14561e-06
 Reference value :  5.17475e-06
 Reference value :  5.20479e-06
 Reference value :  5.22735e-06
 Reference value :  5.24917e-06
 Reference value :  5.25011e-06
 Reference value :  5.25017e-06
 Reference value :  5.25020e-06
 Reference value :  5.25021e-06
 Reference value :  5.25022e-06
 Reference value :  5.25030e-06
 Reference value :  5.25059e-06
 Reference value :  5.25094e-06
 Reference value :  5.25136e-06
 Reference value :  5.25188e-06
 Reference value :  5.25249e-06
 Reference value :  5.25326e-06
 Reference value :  5.25413e-06
 Reference value :  5.25527e-06
 Reference value :  5.25622e-06
 Reference value :  5.25720e-06
 Reference value :  5.25984e-06
 Reference value :  5.26144e-06
 Reference value :  5.26385e-06
 Reference value :  5.26699e-06
 Reference value :  5.27248e-06
 Reference value :  5.28344e-06
 Reference value :  5.30245e-06
 Reference value :  5.41008e-06
 Reference value :  5.48861e-06
 Reference value :  5.50000e-06
 Reference value :  5.50001e-06
 Reference value :  5.50003e-06
 Reference value :  5.50007e-06
 Reference value :  5.50010e-06
 Reference value :  5.50010e-06
 Reference value :  5.50011e-06
 Reference value :  5.50013e-06
 Reference value :  5.50016e-06
 Reference value :  5.50023e-06
 Reference value :  5.50036e-06
 Reference value :  5.50053e-06
 Reference value :  5.50087e-06
 Reference value :  5.50144e-06
 Reference value :  5.50221e-06
 Reference value :  5.50284e-06
 Reference value :  5.50351e-06
 Reference value :  5.50420e-06
 Reference value :  5.50516e-06
 Reference value :  5.50613e-06
 Reference value :  5.50706e-06
 Reference value :  5.50856e-06
 Reference value :  5.50992e-06
 Reference value :  5.51121e-06
 Reference value :  5.51258e-06
 Reference value :  5.51385e-06
 Reference value :  5.51534e-06
 Reference value :  5.51685e-06
 Reference value :  5.51855e-06
 Reference value :  5.52195e-06
 Reference value :  5.52875e-06
 Reference value :  5.54042e-06
 Reference value :  5.56376e-06
 Reference value :  5.60792e-06
 Reference value :  5.69625e-06
 Reference value :  5.75010e-06
 Reference value :  5.75011e-06
 Reference value :  5.75013e-06
 Reference value :  5.75017e-06
 Reference value :  5.75020e-06
 Reference value :  5.75020e-06
 Reference value :  5.75020e-06
 Reference value :  5.75021e-06
 Reference value :  5.75021e-06
 Reference value :  5.75022e-06
 Reference value :  5.75025e-06
 Reference value :  5.75030e-06
 Reference value :  5.75039e-06
 Reference value :  5.75059e-06
 Reference value :  5.75094e-06
 Reference value :  5.75136e-06
 Reference value :  5.75188e-06
 Reference value :  5.75249e-06
 Reference value :  5.75326e-06
 Reference value :  5.75413e-06
 Reference value :  5.75531e-06
 Reference value :  5.75623e-06
 Reference value :  5.75720e-06
 Reference value :  5.75823e-06
 Reference value :  5.75934e-06
 Reference value :  5.76057e-06
 Reference value :  5.76185e-06
 Reference value :  5.76325e-06
 Reference value :  5.76538e-06
 Reference value :  5.76770e-06
 Reference value :  5.77133e-06
 Reference value :  5.77704e-06
 Reference value :  5.78848e-06
 Reference value :  5.81135e-06
 Reference value :  5.85694e-06
 Reference value :  5.94810e-06
 Reference value :  6.00000e-06
 Reference value :  6.00001e-06
 Reference value :  6.00003e-06
 Reference value :  6.00010e-06
 Reference value :  6.00010e-06
 Reference value :  6.00011e-06
 Reference value :  6.00016e-06
 Reference value :  6.00036e-06
 Reference value :  6.00053e-06
 Reference value :  6.00087e-06
 Reference value :  6.00144e-06
 Reference value :  6.00221e-06
 Reference value :  6.00288e-06
 Reference value :  6.00356e-06
 Reference value :  6.00427e-06
 Reference value :  6.00514e-06
 Reference value :  6.00590e-06
 Reference value :  6.00673e-06
 Reference value :  6.00781e-06
 Reference value :  6.00879e-06
 Reference value :  6.00970e-06
 Reference value :  6.01079e-06
 Reference value :  6.01200e-06
 Reference value :  6.01389e-06
 Reference value :  6.01525e-06
 Reference value :  6.01673e-06
 Reference value :  6.01812e-06
 Reference value :  6.01974e-06
 Reference value :  6.02117e-06
 Reference value :  6.02235e-06
 Reference value :  6.02360e-06
 Reference value :  6.02484e-06
 Reference value :  6.02786e-06
 Reference value :  6.03220e-06
 Reference value :  6.03476e-06
 Reference value :  6.03795e-06
 Reference value :  6.04042e-06
 Reference value :  6.04298e-06
 Reference value :  6.04569e-06
 Reference value :  6.04836e-06
 Reference value :  6.05367e-06
 Reference value :  6.06068e-06
 Reference value :  6.07313e-06
 Reference value :  6.09150e-06
 Reference value :  6.12567e-06
 Reference value :  6.18031e-06
 Reference value :  6.25010e-06
 Reference value :  6.25011e-06
 Reference value :  6.25013e-06
 Reference value :  6.25017e-06
 Reference value :  6.25020e-06
 Reference value :  6.25020e-06
 Reference value :  6.25020e-06
 Reference value :  6.25021e-06
 Reference value :  6.25021e-06
 Reference value :  6.25025e-06
 Reference value :  6.25039e-06
 Reference value :  6.25059e-06
 Reference value :  6.25094e-06
 Reference value :  6.25136e-06
 Reference value :  6.25188e-06
 Reference value :  6.25249e-06
 Reference value :  6.25326e-06
 Reference value :  6.25413e-06
 Reference value :  6.25532e-06
 Reference value :  6.25623e-06
 Reference value :  6.25718e-06
 Reference value :  6.25825e-06
 Reference value :  6.25982e-06
 Reference value :  6.26127e-06
 Reference value :  6.26378e-06
 Reference value :  6.26677e-06
 Reference value :  6.27230e-06
 Reference value :  6.28336e-06
 Reference value :  6.30234e-06
 Reference value :  6.34028e-06
 Reference value :  6.41074e-06
 Reference value :  6.50000e-06
 Reference value :  6.50001e-06
 Reference value :  6.50003e-06
 Reference value :  6.50007e-06
 Reference value :  6.50010e-06
 Reference value :  6.50010e-06
 Reference value :  6.50011e-06
 Reference value :  6.50013e-06
 Reference value :  6.50016e-06
 Reference value :  6.50023e-06
 Reference value :  6.50036e-06
 Reference value :  6.50087e-06
 Reference value :  6.50145e-06
 Reference value :  6.50221e-06
 Reference value :  6.50288e-06
 Reference value :  6.50356e-06
 Reference value :  6.50426e-06
 Reference value :  6.50524e-06
 Reference value :  6.50619e-06
 Reference value :  6.50715e-06
 Reference value :  6.50859e-06
 Reference value :  6.50997e-06
 Reference value :  6.51126e-06
 Reference value :  6.51264e-06
 Reference value :  6.51391e-06
 Reference value :  6.51540e-06
 Reference value :  6.51692e-06
 Reference value :  6.51863e-06
 Reference value :  6.52205e-06
 Reference value :  6.54049e-06
 Reference value :  6.56370e-06
 Reference value :  6.60735e-06
 Reference value :  6.68907e-06
 Reference value :  6.75010e-06
 Reference value :  6.75011e-06
 Reference value :  6.75013e-06
 Reference value :  6.75017e-06
 Reference value :  6.75020e-06
 Reference value :  6.75020e-06
 Reference value :  6.75020e-06
 Reference value :  6.75021e-06
 Reference value :  6.75021e-06
 Reference value :  6.75022e-06
 Reference value :  6.75025e-06
 Reference value :  6.75039e-06
 Reference value :  6.75059e-06
 Reference value :  6.75094e-06
 Reference value :  6.75136e-06
 Reference value :  6.75188e-06
 Reference value :  6.75249e-06
 Reference value :  6.75326e-06
 Reference value :  6.75413e-06
 Reference value :  6.75531e-06
 Reference value :  6.75623e-06
 Reference value :  6.75720e-06
 Reference value :  6.75822e-06
 Reference value :  6.75934e-06
 Reference value :  6.76057e-06
 Reference value :  6.76300e-06
 Reference value :  6.76569e-06
 Reference value :  6.77035e-06
 Reference value :  6.77893e-06
 Reference value :  6.79609e-06
 Reference value :  6.82934e-06
 Reference value :  6.89563e-06
 Reference value :  7.00000e-06
 Reference value :  7.00001e-06
 Reference value :  7.00003e-06
 Reference value :  7.00007e-06
 Reference value :  7.00010e-06
 Reference value :  7.00010e-06
 Reference value :  7.00011e-06
 Reference value :  7.00013e-06
 Reference value :  7.00016e-06
 Reference value :  7.00023e-06
 Reference value :  7.00036e-06
 Reference value :  7.00053e-06
 Reference value :  7.00087e-06
 Reference value :  7.00145e-06
 Reference value :  7.00221e-06
 Reference value :  7.00288e-06
 Reference value :  7.00356e-06
 Reference value :  7.00427e-06
 Reference value :  7.00525e-06
 Reference value :  7.00603e-06
 Reference value :  7.00685e-06
 Reference value :  7.00784e-06
 Reference value :  7.00870e-06
 Reference value :  7.00964e-06
 Reference value :  7.01062e-06
 Reference value :  7.01183e-06
 Reference value :  7.01358e-06
 Reference value :  7.01607e-06
 Reference value :  7.01835e-06
 Reference value :  7.02069e-06
 Reference value :  7.02243e-06
 Reference value :  7.02407e-06
 Reference value :  7.02578e-06
 Reference value :  7.02755e-06
 Reference value :  7.02951e-06
 Reference value :  7.03173e-06
 Reference value :  7.03418e-06
 Reference value :  7.03899e-06
 Reference value :  7.04536e-06
 Reference value :  7.05543e-06
 Reference value :  7.06525e-06
 Reference value :  7.07999e-06
 Reference value :  7.09519e-06
 Reference value :  7.11606e-06
 Reference value :  7.12893e-06
 Reference value :  7.14320e-06
 Reference value :  7.16372e-06
 Reference value :  7.19029e-06
 Reference value :  7.22964e-06
 Reference value :  7.25010e-06
 Reference value :  7.25011e-06
 Reference value :  7.25013e-06
 Reference value :  7.25017e-06
 Reference value :  7.25020e-06
 Reference value :  7.25020e-06
 Reference value :  7.25020e-06
 Reference value :  7.25021e-06
 Reference value :  7.25021e-06
 Reference value :  7.25022e-06
 Reference value :  7.25025e-06
 Reference value :  7.25030e-06
 Reference value :  7.25039e-06
 Reference value :  7.25059e-06
 Reference value :  7.25094e-06
 Reference value :  7.25136e-06
 Reference value :  7.25188e-06
 Reference value :  7.25249e-06
 Reference value :  7.25326e-06
 Reference value :  7.25414e-06
 Reference value :  7.25514e-06
 Reference value :  7.25601e-06
 Reference value :  7.25692e-06
 Reference value :  7.25792e-06
 Reference value :  7.25925e-06
 Reference value :  7.26065e-06
 Reference value :  7.26304e-06
 Reference value :  7.26556e-06
 Reference value :  7.27006e-06
 Reference value :  7.27906e-06
 Reference value :  7.29640e-06
 Reference value :  7.33039e-06
 Reference value :  7.39597e-06
 Reference value :  7.48145e-06
 Reference value :  7.50000e-06
 Reference value :  7.50001e-06
 Reference value :  7.50003e-06
 Reference value :  7.50007e-06
 Reference value :  7.50010e-06
 Reference value :  7.50010e-06
 Reference value :  7.50011e-06
 Reference value :  7.50013e-06
 Reference value :  7.50023e-06
 Reference value :  7.50036e-06
 Reference value :  7.50053e-06
 Reference value :  7.50087e-06
 Reference value :  7.50149e-06
 Reference value :  7.50218e-06
 Reference value :  7.50276e-06
 Reference value :  7.50340e-06
 Reference value :  7.50408e-06
 Reference value :  7.50502e-06
 Reference value :  7.50592e-06
 Reference value :  7.50688e-06
 Reference value :  7.50816e-06
 Reference value :  7.50957e-06
 Reference value :  7.51108e-06
 Reference value :  7.51245e-06
 Reference value :  7.51388e-06
 Reference value :  7.51544e-06
 Reference value :  7.51706e-06
 Reference value :  7.51919e-06
 Reference value :  7.52199e-06
 Reference value :  7.52706e-06
 Reference value :  7.53574e-06
 Reference value :  7.55180e-06
 Reference value :  7.58139e-06
 Reference value :  7.63651e-06
 Reference value :  7.73791e-06
 Reference value :  7.75010e-06
 Reference value :  7.75011e-06
 Reference value :  7.75013e-06
 Reference value :  7.75017e-06
 Reference value :  7.75020e-06
 Reference value :  7.75020e-06
 Reference value :  7.75020e-06
 Reference value :  7.75021e-06
 Reference value :  7.75021e-06
 Reference value :  7.75022e-06
 Reference value :  7.75025e-06
 Reference value :  7.75039e-06
 Reference value :  7.75058e-06
 Reference value :  7.75135e-06
 Reference value :  7.75187e-06
 Reference value :  7.75248e-06
 Reference value :  7.75324e-06
 Reference value :  7.75412e-06
 Reference value :  7.75529e-06
 Reference value :  7.75622e-06
 Reference value :  7.75719e-06
 Reference value :  7.75821e-06
 Reference value :  7.75932e-06
 Reference value :  7.76055e-06
 Reference value :  7.76183e-06
 Reference value :  7.76323e-06
 Reference value :  7.76536e-06
 Reference value :  7.76767e-06
 Reference value :  7.77133e-06
 Reference value :  7.77708e-06
 Reference value :  7.78858e-06
 Reference value :  7.81158e-06
 Reference value :  7.85432e-06
 Reference value :  7.93979e-06
 Reference value :  8.00000e-06
 Reference value :  8.00001e-06
 Reference value :  8.00003e-06
 Reference value :  8.00007e-06
 Reference value :  8.00010e-06
 Reference value :  8.00010e-06
 Reference value :  8.00013e-06
 Reference value :  8.00016e-06
 Reference value :  8.00023e-06
 Reference value :  8.00036e-06
 Reference value :  8.00053e-06
 Reference value :  8.00087e-06
 Reference value :  8.00149e-06
 Reference value :  8.00218e-06
 Reference value :  8.00280e-06
 Reference value :  8.00345e-06
 Reference value :  8.00414e-06
 Reference value :  8.00497e-06
 Reference value :  8.00584e-06
 Reference value :  8.00671e-06
 Reference value :  8.00765e-06
 Reference value :  8.00876e-06
 Reference value :  8.00976e-06
 Reference value :  8.01079e-06
 Reference value :  8.01217e-06
 Reference value :  8.01383e-06
 Reference value :  8.01515e-06
 Reference value :  8.01663e-06
 Reference value :  8.01822e-06
 Reference value :  8.01995e-06
 Reference value :  8.02204e-06
 Reference value :  8.02420e-06
 Reference value :  8.02702e-06
 Reference value :  8.02996e-06
 Reference value :  8.03326e-06
 Reference value :  8.03707e-06
 Reference value :  8.04016e-06
 Reference value :  8.04335e-06
 Reference value :  8.04701e-06
 Reference value :  8.05109e-06
 Reference value :  8.05544e-06
 Reference value :  8.06413e-06
 Reference value :  8.07875e-06
 Reference value :  8.10212e-06
 Reference value :  8.14646e-06
 Reference value :  8.22108e-06
 Reference value :  8.25010e-06
 Reference value :  8.25011e-06
 Reference value :  8.25013e-06
 Reference value :  8.25017e-06
 Reference value :  8.25020e-06
 Reference value :  8.25020e-06
 Reference value :  8.25020e-06
 Reference value :  8.25021e-06
 Reference value :  8.25022e-06
 Reference value :  8.25025e-06
 Reference value :  8.25030e-06
 Reference value :  8.25039e-06
 Reference value :  8.25059e-06
 Reference value :  8.25098e-06
 Reference value :  8.25139e-06
 Reference value :  8.25189e-06
 Reference value :  8.25250e-06
 Reference value :  8.25330e-06
 Reference value :  8.25418e-06
 Reference value :  8.25526e-06
 Reference value :  8.25645e-06
 Reference value :  8.25784e-06
 Reference value :  8.25942e-06
 Reference value :  8.26126e-06
 Reference value :  8.26400e-06
 Reference value :  8.26675e-06
 Reference value :  8.27190e-06
 Reference value :  8.28222e-06
 Reference value :  8.29891e-06
 Reference value :  8.33221e-06
 Reference value :  8.39056e-06
 Reference value :  8.50000e-06
 Reference value :  8.50001e-06
 Reference value :  8.50003e-06
 Reference value :  8.50007e-06
 Reference value :  8.50010e-06
 Reference value :  8.50010e-06
 Reference value :  8.50013e-06
 Reference value :  8.50016e-06
 Reference value :  8.50023e-06
 Reference value :  8.50036e-06
 Reference value :  8.50063e-06
 Reference value :  8.50109e-06
 Reference value :  8.50179e-06
 Reference value :  8.50270e-06
 Reference value :  8.50336e-06
 Reference value :  8.50415e-06
 Reference value :  8.50499e-06
 Reference value :  8.50589e-06
 Reference value :  8.50698e-06
 Reference value :  8.50836e-06
 Reference value :  8.51007e-06
 Reference value :  8.51231e-06
 Reference value :  8.51410e-06
 Reference value :  8.51597e-06
 Reference value :  8.52086e-06
 Reference value :  8.52366e-06
 Reference value :  8.52797e-06
 Reference value :  8.53316e-06
 Reference value :  8.53691e-06
 Reference value :  8.53998e-06
 Reference value :  8.54288e-06
 Reference value :  8.54569e-06
 Reference value :  8.54790e-06
 Reference value :  8.55010e-06
 Reference value :  8.55196e-06
 Reference value :  8.55385e-06
 Reference value :  8.55567e-06
 Reference value :  8.55783e-06
 Reference value :  8.56009e-06
 Reference value :  8.56311e-06
 Reference value :  8.57065e-06
 Reference value :  8.58158e-06
 Reference value :  8.60379e-06
 Reference value :  8.61716e-06
 Reference value :  8.63303e-06
 Reference value :  8.65015e-06
 Reference value :  8.67487e-06
 Reference value :  8.70930e-06
 Reference value :  8.74300e-06
 Reference value :  8.75010e-06
 Reference value :  8.75011e-06
 Reference value :  8.75013e-06
 Reference value :  8.75017e-06
 Reference value :  8.75020e-06
 Reference value :  8.75020e-06
 Reference value :  8.75020e-06
 Reference value :  8.75021e-06
 Reference value :  8.75021e-06
 Reference value :  8.75022e-06
 Reference value :  8.75025e-06
 Reference value :  8.75029e-06
 Reference value :  8.75058e-06
 Reference value :  8.75096e-06
 Reference value :  8.75190e-06
 Reference value :  8.75251e-06
 Reference value :  8.75330e-06
 Reference value :  8.75418e-06
 Reference value :  8.75539e-06
 Reference value :  8.75634e-06
 Reference value :  8.75733e-06
 Reference value :  8.75846e-06
 Reference value :  8.76000e-06
 Reference value :  8.76164e-06
 Reference value :  8.76401e-06
 Reference value :  8.76741e-06
 Reference value :  8.77345e-06
 Reference value :  8.78552e-06
 Reference value :  8.80548e-06
 Reference value :  8.84507e-06
 Reference value :  8.91604e-06
 Reference value :  8.99560e-06
No. of Data Rows : 1423
ngspice-44 done
