
Note: Compatibility modes selected: hs a


Circuit: ** sch_path: /home/ece/cace/sar-adc-using-sky130-pdk/runs/run_2025-09-13_02-27-57/parameters/sndr/run_2/sndr_enob_fom.sch

option SCALE: Scale is set to 1e-06 for instance and model parameters
option SCALE: Scale is set to 1e-06 for instance and model parameters
option SCALE: Scale is set to 1e-06 for instance and model parameters
option SCALE: Scale is set to 1e-06 for instance and model parameters
Doing analysis at TEMP = 27.000000 and TNOM = 27.000000

Using KLU as Direct Linear Solver
Operating point simulation skipped by 'uic',
  now using transient initial conditions.
 Reference value :  1.00000e-12
 Reference value :  1.08400e-12
 Reference value :  1.68638e-12
 Reference value :  6.39893e-12
 Reference value :  6.21180e-11
 Reference value :  1.16567e-10
 Reference value :  4.47898e-10
 Reference value :  1.85115e-09
 Reference value :  4.07736e-09
 Reference value :  6.08822e-09
 Reference value :  7.38821e-09
 Reference value :  8.84794e-09
 Reference value :  1.07886e-08
 Reference value :  1.15199e-08
 Reference value :  1.32063e-08
 Reference value :  1.81986e-08
 Reference value :  2.55805e-08
 Reference value :  3.77127e-08
 Reference value :  5.87377e-08
 Reference value :  1.47411e-07
 Reference value :  2.50110e-07
 Reference value :  2.50200e-07
 Reference value :  2.50254e-07
 Reference value :  2.50542e-07
 Reference value :  2.51285e-07
 Reference value :  2.52119e-07
 Reference value :  2.53257e-07
 Reference value :  2.53738e-07
 Reference value :  2.54793e-07
 Reference value :  2.56198e-07
 Reference value :  2.58754e-07
 Reference value :  2.64009e-07
 Reference value :  2.80583e-07
 Reference value :  3.33218e-07
 Reference value :  5.00010e-07
 Reference value :  5.00100e-07
 Reference value :  5.00156e-07
 Reference value :  5.00516e-07
 Reference value :  5.01187e-07
 Reference value :  5.02011e-07
 Reference value :  5.02907e-07
 Reference value :  5.04017e-07
 Reference value :  5.05563e-07
 Reference value :  5.06613e-07
 Reference value :  5.09008e-07
 Reference value :  5.11637e-07
 Reference value :  5.13053e-07
 Reference value :  5.18929e-07
 Reference value :  5.28209e-07
 Reference value :  5.83993e-07
 Reference value :  7.50100e-07
 Reference value :  7.50170e-07
 Reference value :  7.50224e-07
 Reference value :  7.50448e-07
 Reference value :  7.50986e-07
 Reference value :  7.51397e-07
 Reference value :  7.52296e-07
 Reference value :  7.53450e-07
 Reference value :  7.53976e-07
 Reference value :  7.55035e-07
 Reference value :  7.56554e-07
 Reference value :  7.69351e-07
 Reference value :  9.48840e-07
 Reference value :  1.00007e-06
 Reference value :  1.00022e-06
 Reference value :  1.00119e-06
 Reference value :  1.00201e-06
 Reference value :  1.00341e-06
 Reference value :  1.00500e-06
 Reference value :  1.00709e-06
 Reference value :  1.00996e-06
 Reference value :  1.01119e-06
 Reference value :  1.01223e-06
 Reference value :  1.01429e-06
 Reference value :  1.01627e-06
 Reference value :  1.02079e-06
 Reference value :  1.03638e-06
 Reference value :  1.10187e-06
 Reference value :  1.12702e-06
 Reference value :  1.14515e-06
 Reference value :  1.15800e-06
 Reference value :  1.17952e-06
 Reference value :  1.22928e-06
 Reference value :  1.25013e-06
 Reference value :  1.25022e-06
 Reference value :  1.25045e-06
 Reference value :  1.25098e-06
 Reference value :  1.25140e-06
 Reference value :  1.25230e-06
 Reference value :  1.25300e-06
 Reference value :  1.25344e-06
 Reference value :  1.25455e-06
 Reference value :  1.25595e-06
 Reference value :  1.26145e-06
 Reference value :  1.28578e-06
 Reference value :  1.48039e-06
 Reference value :  1.50007e-06
 Reference value :  1.50022e-06
 Reference value :  1.50083e-06
 Reference value :  1.50154e-06
 Reference value :  1.50282e-06
 Reference value :  1.50464e-06
 Reference value :  1.50598e-06
 Reference value :  1.50749e-06
 Reference value :  1.51030e-06
 Reference value :  1.52261e-06
 Reference value :  1.65066e-06
 Reference value :  1.75017e-06
 Reference value :  1.75026e-06
 Reference value :  1.75069e-06
 Reference value :  1.75140e-06
 Reference value :  1.75299e-06
 Reference value :  1.75397e-06
 Reference value :  1.75502e-06
 Reference value :  1.75662e-06
 Reference value :  1.75967e-06
 Reference value :  1.77517e-06
 Reference value :  2.00000e-06
 Reference value :  2.00010e-06
 Reference value :  2.00016e-06
 Reference value :  2.00052e-06
 Reference value :  2.00119e-06
 Reference value :  2.00201e-06
 Reference value :  2.00290e-06
 Reference value :  2.00390e-06
 Reference value :  2.00484e-06
 Reference value :  2.00664e-06
 Reference value :  2.00850e-06
 Reference value :  2.01017e-06
 Reference value :  2.01191e-06
 Reference value :  2.01353e-06
 Reference value :  2.01625e-06
 Reference value :  2.01883e-06
 Reference value :  2.03761e-06
 Reference value :  2.06386e-06
 Reference value :  2.07599e-06
 Reference value :  2.09505e-06
 Reference value :  2.11584e-06
 Reference value :  2.20682e-06
 Reference value :  2.25013e-06
 Reference value :  2.25022e-06
 Reference value :  2.25069e-06
 Reference value :  2.25140e-06
 Reference value :  2.25299e-06
 Reference value :  2.25399e-06
 Reference value :  2.25524e-06
 Reference value :  2.25891e-06
 Reference value :  2.27250e-06
 Reference value :  2.48949e-06
 Reference value :  2.50003e-06
 Reference value :  2.50010e-06
 Reference value :  2.50016e-06
 Reference value :  2.50034e-06
 Reference value :  2.50083e-06
 Reference value :  2.50158e-06
 Reference value :  2.50242e-06
 Reference value :  2.50290e-06
 Reference value :  2.50399e-06
 Reference value :  2.50552e-06
 Reference value :  2.50616e-06
 Reference value :  2.50771e-06
 Reference value :  2.50956e-06
 Reference value :  2.51251e-06
 Reference value :  2.53005e-06
 Reference value :  2.65834e-06
 Reference value :  2.75013e-06
 Reference value :  2.75021e-06
 Reference value :  2.75045e-06
 Reference value :  2.75140e-06
 Reference value :  2.75299e-06
 Reference value :  2.75397e-06
 Reference value :  2.75502e-06
 Reference value :  2.75823e-06
 Reference value :  2.80751e-06
 Reference value :  3.00001e-06
 Reference value :  3.00010e-06
 Reference value :  3.00016e-06
 Reference value :  3.00052e-06
 Reference value :  3.00119e-06
 Reference value :  3.00201e-06
 Reference value :  3.00289e-06
 Reference value :  3.00450e-06
 Reference value :  3.00554e-06
 Reference value :  3.00847e-06
 Reference value :  3.01120e-06
 Reference value :  3.01323e-06
 Reference value :  3.01525e-06
 Reference value :  3.01913e-06
 Reference value :  3.02880e-06
 Reference value :  3.04007e-06
 Reference value :  3.05158e-06
 Reference value :  3.06797e-06
 Reference value :  3.10084e-06
 Reference value :  3.22704e-06
 Reference value :  3.25013e-06
 Reference value :  3.25022e-06
 Reference value :  3.25069e-06
 Reference value :  3.25140e-06
 Reference value :  3.25299e-06
 Reference value :  3.25395e-06
 Reference value :  3.25595e-06
 Reference value :  3.26494e-06
 Reference value :  3.36903e-06
 Reference value :  3.50003e-06
 Reference value :  3.50012e-06
 Reference value :  3.50034e-06
 Reference value :  3.50083e-06
 Reference value :  3.50154e-06
 Reference value :  3.50235e-06
 Reference value :  3.50282e-06
 Reference value :  3.50388e-06
 Reference value :  3.50536e-06
 Reference value :  3.50598e-06
 Reference value :  3.50749e-06
 Reference value :  3.50924e-06
 Reference value :  3.51145e-06
 Reference value :  3.53202e-06
 Reference value :  3.75010e-06
 Reference value :  3.75017e-06
 Reference value :  3.75026e-06
 Reference value :  3.75069e-06
 Reference value :  3.75140e-06
 Reference value :  3.75299e-06
 Reference value :  3.75397e-06
 Reference value :  3.75502e-06
 Reference value :  3.75661e-06
 Reference value :  3.75836e-06
 Reference value :  3.76106e-06
 Reference value :  3.77495e-06
 Reference value :  3.88035e-06
 Reference value :  4.00003e-06
 Reference value :  4.00010e-06
 Reference value :  4.00012e-06
 Reference value :  4.00034e-06
 Reference value :  4.00083e-06
 Reference value :  4.00158e-06
 Reference value :  4.00242e-06
 Reference value :  4.00342e-06
 Reference value :  4.00440e-06
 Reference value :  4.00534e-06
 Reference value :  4.00758e-06
 Reference value :  4.00928e-06
 Reference value :  4.01015e-06
 Reference value :  4.01191e-06
 Reference value :  4.01356e-06
 Reference value :  4.01633e-06
 Reference value :  4.02083e-06
 Reference value :  4.03079e-06
 Reference value :  4.03306e-06
 Reference value :  4.04025e-06
 Reference value :  4.04949e-06
 Reference value :  4.09575e-06
 Reference value :  4.21699e-06
 Reference value :  4.25013e-06
 Reference value :  4.25021e-06
 Reference value :  4.25032e-06
 Reference value :  4.25098e-06
 Reference value :  4.25186e-06
 Reference value :  4.25345e-06
 Reference value :  4.25461e-06
 Reference value :  4.25741e-06
 Reference value :  4.28678e-06
 Reference value :  4.50000e-06
 Reference value :  4.50010e-06
 Reference value :  4.50016e-06
 Reference value :  4.50083e-06
 Reference value :  4.50201e-06
 Reference value :  4.50290e-06
 Reference value :  4.50399e-06
 Reference value :  4.50616e-06
 Reference value :  4.50771e-06
 Reference value :  4.51086e-06
 Reference value :  4.54771e-06
 Reference value :  4.75011e-06
 Reference value :  4.75021e-06
 Reference value :  4.75045e-06
 Reference value :  4.75140e-06
 Reference value :  4.75299e-06
 Reference value :  4.75397e-06
 Reference value :  4.75502e-06
 Reference value :  4.75822e-06
 Reference value :  4.78227e-06
 Reference value :  4.95663e-06
 Reference value :  5.00007e-06
 Reference value :  5.00012e-06
 Reference value :  5.00034e-06
 Reference value :  5.00119e-06
 Reference value :  5.00201e-06
 Reference value :  5.00289e-06
 Reference value :  5.00450e-06
 Reference value :  5.00554e-06
 Reference value :  5.00847e-06
 Reference value :  5.01120e-06
 Reference value :  5.01323e-06
 Reference value :  5.01524e-06
 Reference value :  5.01912e-06
 Reference value :  5.02853e-06
 Reference value :  5.04579e-06
 Reference value :  5.05623e-06
 Reference value :  5.06775e-06
 Reference value :  5.10802e-06
 Reference value :  5.15822e-06
 Reference value :  5.20501e-06
 Reference value :  5.23790e-06
 Reference value :  5.25011e-06
 Reference value :  5.25020e-06
 Reference value :  5.25026e-06
 Reference value :  5.25069e-06
 Reference value :  5.25140e-06
 Reference value :  5.25299e-06
 Reference value :  5.25398e-06
 Reference value :  5.25523e-06
 Reference value :  5.25888e-06
 Reference value :  5.28667e-06
 Reference value :  5.50000e-06
 Reference value :  5.50010e-06
 Reference value :  5.50022e-06
 Reference value :  5.50083e-06
 Reference value :  5.50158e-06
 Reference value :  5.50290e-06
 Reference value :  5.50399e-06
 Reference value :  5.50553e-06
 Reference value :  5.50616e-06
 Reference value :  5.50771e-06
 Reference value :  5.50956e-06
 Reference value :  5.52053e-06
 Reference value :  5.65391e-06
 Reference value :  5.75017e-06
 Reference value :  5.75032e-06
 Reference value :  5.75140e-06
 Reference value :  5.75299e-06
 Reference value :  5.75397e-06
 Reference value :  5.75579e-06
 Reference value :  5.76988e-06
 Reference value :  6.00000e-06
 Reference value :  6.00010e-06
 Reference value :  6.00022e-06
 Reference value :  6.00119e-06
 Reference value :  6.00242e-06
 Reference value :  6.00396e-06
 Reference value :  6.00500e-06
 Reference value :  6.00847e-06
 Reference value :  6.01120e-06
 Reference value :  6.01323e-06
 Reference value :  6.01625e-06
 Reference value :  6.02745e-06
 Reference value :  6.03733e-06
 Reference value :  6.04466e-06
 Reference value :  6.05888e-06
 Reference value :  6.10770e-06
 Reference value :  6.25011e-06
 Reference value :  6.25021e-06
 Reference value :  6.25045e-06
 Reference value :  6.25140e-06
 Reference value :  6.25299e-06
 Reference value :  6.25394e-06
 Reference value :  6.25525e-06
 Reference value :  6.25873e-06
 Reference value :  6.28525e-06
 Reference value :  6.50000e-06
 Reference value :  6.50010e-06
 Reference value :  6.50022e-06
 Reference value :  6.50083e-06
 Reference value :  6.50154e-06
 Reference value :  6.50282e-06
 Reference value :  6.50388e-06
 Reference value :  6.50535e-06
 Reference value :  6.50597e-06
 Reference value :  6.50749e-06
 Reference value :  6.50924e-06
 Reference value :  6.51028e-06
 Reference value :  6.51672e-06
 Reference value :  6.54799e-06
 Reference value :  6.75010e-06
 Reference value :  6.75017e-06
 Reference value :  6.75022e-06
 Reference value :  6.75045e-06
 Reference value :  6.75139e-06
 Reference value :  6.75299e-06
 Reference value :  6.75397e-06
 Reference value :  6.75502e-06
 Reference value :  6.75661e-06
 Reference value :  6.75963e-06
 Reference value :  6.77481e-06
 Reference value :  6.99833e-06
 Reference value :  7.00007e-06
 Reference value :  7.00012e-06
 Reference value :  7.00034e-06
 Reference value :  7.00083e-06
 Reference value :  7.00158e-06
 Reference value :  7.00242e-06
 Reference value :  7.00342e-06
 Reference value :  7.00440e-06
 Reference value :  7.00534e-06
 Reference value :  7.00758e-06
 Reference value :  7.00933e-06
 Reference value :  7.01016e-06
 Reference value :  7.01187e-06
 Reference value :  7.01441e-06
 Reference value :  7.01743e-06
 Reference value :  7.02438e-06
 Reference value :  7.07241e-06
 Reference value :  7.12532e-06
 Reference value :  7.25010e-06
 Reference value :  7.25017e-06
 Reference value :  7.25022e-06
 Reference value :  7.25045e-06
 Reference value :  7.25098e-06
 Reference value :  7.25186e-06
 Reference value :  7.25299e-06
 Reference value :  7.25396e-06
 Reference value :  7.25601e-06
 Reference value :  7.26176e-06
 Reference value :  7.31691e-06
 Reference value :  7.50000e-06
 Reference value :  7.50007e-06
 Reference value :  7.50016e-06
 Reference value :  7.50052e-06
 Reference value :  7.50119e-06
 Reference value :  7.50195e-06
 Reference value :  7.50282e-06
 Reference value :  7.50389e-06
 Reference value :  7.50536e-06
 Reference value :  7.50598e-06
 Reference value :  7.50749e-06
 Reference value :  7.51028e-06
 Reference value :  7.52214e-06
 Reference value :  7.64246e-06
 Reference value :  7.75013e-06
 Reference value :  7.75021e-06
 Reference value :  7.75032e-06
 Reference value :  7.75098e-06
 Reference value :  7.75186e-06
 Reference value :  7.75298e-06
 Reference value :  7.75397e-06
 Reference value :  7.75501e-06
 Reference value :  7.75660e-06
 Reference value :  7.75960e-06
 Reference value :  7.77458e-06
 Reference value :  7.99420e-06
 Reference value :  8.00003e-06
 Reference value :  8.00011e-06
 Reference value :  8.00034e-06
 Reference value :  8.00119e-06
 Reference value :  8.00242e-06
 Reference value :  8.00389e-06
 Reference value :  8.00484e-06
 Reference value :  8.00663e-06
 Reference value :  8.00902e-06
 Reference value :  8.01268e-06
 Reference value :  8.01947e-06
 Reference value :  8.02663e-06
 Reference value :  8.03110e-06
 Reference value :  8.03429e-06
 Reference value :  8.04140e-06
 Reference value :  8.06088e-06
 Reference value :  8.21092e-06
 Reference value :  8.25017e-06
 Reference value :  8.25026e-06
 Reference value :  8.25070e-06
 Reference value :  8.25139e-06
 Reference value :  8.25298e-06
 Reference value :  8.25535e-06
 Reference value :  8.25919e-06
 Reference value :  8.29149e-06
 Reference value :  8.50003e-06
 Reference value :  8.50016e-06
 Reference value :  8.50135e-06
 Reference value :  8.50283e-06
 Reference value :  8.50438e-06
 Reference value :  8.50610e-06
 Reference value :  8.51652e-06
 Reference value :  8.52169e-06
 Reference value :  8.52576e-06
 Reference value :  8.53139e-06
 Reference value :  8.53781e-06
 Reference value :  8.54945e-06
 Reference value :  8.59507e-06
 Reference value :  8.75011e-06
 Reference value :  8.75022e-06
 Reference value :  8.75069e-06
 Reference value :  8.75185e-06
 Reference value :  8.75342e-06
 Reference value :  8.75515e-06
 Reference value :  8.76140e-06
 Reference value :  8.81145e-06
 Reference value :  9.00003e-06
 Reference value :  9.00012e-06
 Reference value :  9.00052e-06
 Reference value :  9.00119e-06
 Reference value :  9.00201e-06
 Reference value :  9.00289e-06
 Reference value :  9.00397e-06
 Reference value :  9.00655e-06
 Reference value :  9.00902e-06
 Reference value :  9.01151e-06
 Reference value :  9.01277e-06
 Reference value :  9.01599e-06
 Reference value :  9.02639e-06
 Reference value :  9.13748e-06
 Reference value :  9.25013e-06
 Reference value :  9.25022e-06
 Reference value :  9.25045e-06
 Reference value :  9.25098e-06
 Reference value :  9.25186e-06
 Reference value :  9.25298e-06
 Reference value :  9.25396e-06
 Reference value :  9.25501e-06
 Reference value :  9.25660e-06
 Reference value :  9.26973e-06
 Reference value :  9.45582e-06
 Reference value :  9.50003e-06
 Reference value :  9.50011e-06
 Reference value :  9.50022e-06
 Reference value :  9.50083e-06
 Reference value :  9.50158e-06
 Reference value :  9.50242e-06
 Reference value :  9.50341e-06
 Reference value :  9.50450e-06
 Reference value :  9.50554e-06
 Reference value :  9.50709e-06
 Reference value :  9.50996e-06
 Reference value :  9.51119e-06
 Reference value :  9.51324e-06
 Reference value :  9.51526e-06
 Reference value :  9.51740e-06
 Reference value :  9.52408e-06
 Reference value :  9.55039e-06
 Reference value :  9.60044e-06
 Reference value :  9.62430e-06
 Reference value :  9.63844e-06
 Reference value :  9.65029e-06
 Reference value :  9.66976e-06
 Reference value :  9.69536e-06
 Reference value :  9.75010e-06
 Reference value :  9.75017e-06
 Reference value :  9.75022e-06
 Reference value :  9.75045e-06
 Reference value :  9.75140e-06
 Reference value :  9.75229e-06
 Reference value :  9.75343e-06
 Reference value :  9.75526e-06
 Reference value :  9.75876e-06
 Reference value :  9.77177e-06
 Reference value :  9.97826e-06
 Reference value :  1.00001e-05
 Reference value :  1.00002e-05
 Reference value :  1.00005e-05
 Reference value :  1.00012e-05
 Reference value :  1.00015e-05
 Reference value :  1.00023e-05
 Reference value :  1.00028e-05
 Reference value :  1.00039e-05
 Reference value :  1.00054e-05
 Reference value :  1.00066e-05
 Reference value :  1.00084e-05
 Reference value :  1.00103e-05
 Reference value :  1.00222e-05
 Reference value :  1.01428e-05
 Reference value :  1.02502e-05
 Reference value :  1.02503e-05
 Reference value :  1.02507e-05
 Reference value :  1.02514e-05
 Reference value :  1.02530e-05
 Reference value :  1.02540e-05
 Reference value :  1.02545e-05
 Reference value :  1.02558e-05
 Reference value :  1.02584e-05
 Reference value :  1.02637e-05
 Reference value :  1.03198e-05
 Reference value :  1.05000e-05
 Reference value :  1.05001e-05
 Reference value :  1.05002e-05
 Reference value :  1.05003e-05
 Reference value :  1.05008e-05
 Reference value :  1.05016e-05
 Reference value :  1.05024e-05
 Reference value :  1.05034e-05
 Reference value :  1.05044e-05
 Reference value :  1.05053e-05
 Reference value :  1.05066e-05
 Reference value :  1.05084e-05
 Reference value :  1.05102e-05
 Reference value :  1.05119e-05
 Reference value :  1.05137e-05
 Reference value :  1.05155e-05
 Reference value :  1.05177e-05
 Reference value :  1.05257e-05
 Reference value :  1.05643e-05
 Reference value :  1.05937e-05
 Reference value :  1.06010e-05
 Reference value :  1.06233e-05
 Reference value :  1.07278e-05
 Reference value :  1.07501e-05
 Reference value :  1.07502e-05
 Reference value :  1.07504e-05
 Reference value :  1.07514e-05
 Reference value :  1.07530e-05
 Reference value :  1.07540e-05
 Reference value :  1.07560e-05
 Reference value :  1.07652e-05
 Reference value :  1.08727e-05
 Reference value :  1.10000e-05
 Reference value :  1.10001e-05
 Reference value :  1.10002e-05
 Reference value :  1.10008e-05
 Reference value :  1.10016e-05
 Reference value :  1.10029e-05
 Reference value :  1.10047e-05
 Reference value :  1.10062e-05
 Reference value :  1.10077e-05
 Reference value :  1.10125e-05
 Reference value :  1.10474e-05
 Reference value :  1.12501e-05
 Reference value :  1.12502e-05
 Reference value :  1.12503e-05
 Reference value :  1.12510e-05
 Reference value :  1.12519e-05
 Reference value :  1.12530e-05
 Reference value :  1.12540e-05
 Reference value :  1.12550e-05
 Reference value :  1.12566e-05
 Reference value :  1.12698e-05
 Reference value :  1.14559e-05
 Reference value :  1.15001e-05
 Reference value :  1.15001e-05
 Reference value :  1.15003e-05
 Reference value :  1.15012e-05
 Reference value :  1.15020e-05
 Reference value :  1.15034e-05
 Reference value :  1.15050e-05
 Reference value :  1.15071e-05
 Reference value :  1.15100e-05
 Reference value :  1.15112e-05
 Reference value :  1.15132e-05
 Reference value :  1.15152e-05
 Reference value :  1.15174e-05
 Reference value :  1.15240e-05
 Reference value :  1.15404e-05
 Reference value :  1.15520e-05
 Reference value :  1.15636e-05
 Reference value :  1.15821e-05
 Reference value :  1.16889e-05
 Reference value :  1.17501e-05
 Reference value :  1.17502e-05
 Reference value :  1.17507e-05
 Reference value :  1.17514e-05
 Reference value :  1.17530e-05
 Reference value :  1.17539e-05
 Reference value :  1.17559e-05
 Reference value :  1.17649e-05
 Reference value :  1.18689e-05
 Reference value :  1.20000e-05
 Reference value :  1.20001e-05
 Reference value :  1.20002e-05
 Reference value :  1.20008e-05
 Reference value :  1.20015e-05
 Reference value :  1.20028e-05
 Reference value :  1.20039e-05
 Reference value :  1.20060e-05
 Reference value :  1.20075e-05
 Reference value :  1.20103e-05
 Reference value :  1.20221e-05
 Reference value :  1.22501e-05
 Reference value :  1.22502e-05
 Reference value :  1.22503e-05
 Reference value :  1.22510e-05
 Reference value :  1.22519e-05
 Reference value :  1.22530e-05
 Reference value :  1.22534e-05
 Reference value :  1.22545e-05
 Reference value :  1.22558e-05
 Reference value :  1.22575e-05
 Reference value :  1.22596e-05
 Reference value :  1.22674e-05
 Reference value :  1.23199e-05
 Reference value :  1.25000e-05
 Reference value :  1.25001e-05
 Reference value :  1.25005e-05
 Reference value :  1.25016e-05
 Reference value :  1.25029e-05
 Reference value :  1.25039e-05
 Reference value :  1.25048e-05
 Reference value :  1.25066e-05
 Reference value :  1.25084e-05
 Reference value :  1.25102e-05
 Reference value :  1.25119e-05
 Reference value :  1.25145e-05
 Reference value :  1.25178e-05
 Reference value :  1.25246e-05
 Reference value :  1.25307e-05
 Reference value :  1.25340e-05
 Reference value :  1.25384e-05
 Reference value :  1.25470e-05
 Reference value :  1.25759e-05
 Reference value :  1.26962e-05
 Reference value :  1.27501e-05
 Reference value :  1.27502e-05
 Reference value :  1.27504e-05
 Reference value :  1.27510e-05
 Reference value :  1.27519e-05
 Reference value :  1.27530e-05
 Reference value :  1.27540e-05
 Reference value :  1.27552e-05
 Reference value :  1.27574e-05
 Reference value :  1.27723e-05
 Reference value :  1.28725e-05
 Reference value :  1.30000e-05
 Reference value :  1.30001e-05
 Reference value :  1.30002e-05
 Reference value :  1.30003e-05
 Reference value :  1.30008e-05
 Reference value :  1.30016e-05
 Reference value :  1.30029e-05
 Reference value :  1.30040e-05
 Reference value :  1.30055e-05
 Reference value :  1.30062e-05
 Reference value :  1.30077e-05
 Reference value :  1.30096e-05
 Reference value :  1.30205e-05
 Reference value :  1.31534e-05
 Reference value :  1.32501e-05
 Reference value :  1.32502e-05
 Reference value :  1.32504e-05
 Reference value :  1.32514e-05
 Reference value :  1.32530e-05
 Reference value :  1.32534e-05
 Reference value :  1.32545e-05
 Reference value :  1.32558e-05
 Reference value :  1.32603e-05
 Reference value :  1.32822e-05
 Reference value :  1.34557e-05
 Reference value :  1.35000e-05
 Reference value :  1.35001e-05
 Reference value :  1.35002e-05
 Reference value :  1.35005e-05
 Reference value :  1.35012e-05
 Reference value :  1.35020e-05
 Reference value :  1.35029e-05
 Reference value :  1.35040e-05
 Reference value :  1.35050e-05
 Reference value :  1.35063e-05
 Reference value :  1.35085e-05
 Reference value :  1.35112e-05
 Reference value :  1.35122e-05
 Reference value :  1.35143e-05
 Reference value :  1.35163e-05
 Reference value :  1.35191e-05
 Reference value :  1.35283e-05
 Reference value :  1.35388e-05
 Reference value :  1.35479e-05
 Reference value :  1.35576e-05
 Reference value :  1.35689e-05
 Reference value :  1.36228e-05
 Reference value :  1.37501e-05
 Reference value :  1.37502e-05
 Reference value :  1.37510e-05
 Reference value :  1.37519e-05
 Reference value :  1.37534e-05
 Reference value :  1.37553e-05
 Reference value :  1.37588e-05
 Reference value :  1.37857e-05
 Reference value :  1.40000e-05
 Reference value :  1.40001e-05
 Reference value :  1.40003e-05
 Reference value :  1.40015e-05
 Reference value :  1.40028e-05
 Reference value :  1.40046e-05
 Reference value :  1.40066e-05
 Reference value :  1.40084e-05
 Reference value :  1.40114e-05
 Reference value :  1.40792e-05
 Reference value :  1.42501e-05
 Reference value :  1.42502e-05
 Reference value :  1.42510e-05
 Reference value :  1.42523e-05
 Reference value :  1.42534e-05
 Reference value :  1.42550e-05
 Reference value :  1.42575e-05
 Reference value :  1.42636e-05
 Reference value :  1.43789e-05
 Reference value :  1.45001e-05
 Reference value :  1.45002e-05
 Reference value :  1.45008e-05
 Reference value :  1.45016e-05
 Reference value :  1.45029e-05
 Reference value :  1.45044e-05
 Reference value :  1.45059e-05
 Reference value :  1.45076e-05
 Reference value :  1.45102e-05
 Reference value :  1.45119e-05
 Reference value :  1.45135e-05
 Reference value :  1.45163e-05
 Reference value :  1.45188e-05
 Reference value :  1.45216e-05
 Reference value :  1.45263e-05
 Reference value :  1.45555e-05
 Reference value :  1.46845e-05
 Reference value :  1.47502e-05
 Reference value :  1.47503e-05
 Reference value :  1.47507e-05
 Reference value :  1.47514e-05
 Reference value :  1.47530e-05
 Reference value :  1.47546e-05
 Reference value :  1.47652e-05
 Reference value :  1.48721e-05
 Reference value :  1.50000e-05
 Reference value :  1.50001e-05
 Reference value :  1.50002e-05
 Reference value :  1.50008e-05
 Reference value :  1.50016e-05
 Reference value :  1.50029e-05
 Reference value :  1.50040e-05
 Reference value :  1.50055e-05
 Reference value :  1.50062e-05
 Reference value :  1.50077e-05
 Reference value :  1.50109e-05
 Reference value :  1.50295e-05
 Reference value :  1.52501e-05
 Reference value :  1.52502e-05
 Reference value :  1.52503e-05
 Reference value :  1.52507e-05
 Reference value :  1.52514e-05
 Reference value :  1.52523e-05
 Reference value :  1.52534e-05
 Reference value :  1.52545e-05
 Reference value :  1.52558e-05
 Reference value :  1.52603e-05
 Reference value :  1.52823e-05
 Reference value :  1.55000e-05
 Reference value :  1.55007e-05
 Reference value :  1.55030e-05
 Reference value :  1.55043e-05
 Reference value :  1.55056e-05
 Reference value :  1.55080e-05
 Reference value :  1.55094e-05
 Reference value :  1.55120e-05
 Reference value :  1.55138e-05
 Reference value :  1.55158e-05
 Reference value :  1.55197e-05
 Reference value :  1.55354e-05
 Reference value :  1.55972e-05
 Reference value :  1.57501e-05
 Reference value :  1.57502e-05
 Reference value :  1.57507e-05
 Reference value :  1.57519e-05
 Reference value :  1.57534e-05
 Reference value :  1.57545e-05
 Reference value :  1.57571e-05
 Reference value :  1.57833e-05
 Reference value :  1.60000e-05
 Reference value :  1.60002e-05
 Reference value :  1.60008e-05
 Reference value :  1.60020e-05
 Reference value :  1.60034e-05
 Reference value :  1.60062e-05
 Reference value :  1.60086e-05
 Reference value :  1.60203e-05
 Reference value :  1.62501e-05
 Reference value :  1.62503e-05
 Reference value :  1.62514e-05
 Reference value :  1.62534e-05
 Reference value :  1.62550e-05
 Reference value :  1.62699e-05
 Reference value :  1.65000e-05
 Reference value :  1.65002e-05
 Reference value :  1.65008e-05
 Reference value :  1.65020e-05
 Reference value :  1.65034e-05
 Reference value :  1.65050e-05
 Reference value :  1.65072e-05
 Reference value :  1.65098e-05
 Reference value :  1.65366e-05
 Reference value :  1.67501e-05
 Reference value :  1.67502e-05
 Reference value :  1.67503e-05
 Reference value :  1.67507e-05
 Reference value :  1.67514e-05
 Reference value :  1.67530e-05
 Reference value :  1.67553e-05
 Reference value :  1.67577e-05
 Reference value :  1.67662e-05
 Reference value :  1.68217e-05
 Reference value :  1.70021e-05
 Reference value :  1.70064e-05
 Reference value :  1.70086e-05
 Reference value :  1.70132e-05
 Reference value :  1.70189e-05
 Reference value :  1.70229e-05
 Reference value :  1.70257e-05
 Reference value :  1.70281e-05
 Reference value :  1.70315e-05
 Reference value :  1.70343e-05
 Reference value :  1.70414e-05
 Reference value :  1.70537e-05
 Reference value :  1.70882e-05
 Reference value :  1.71811e-05
 Reference value :  1.72501e-05
 Reference value :  1.72502e-05
 Reference value :  1.72503e-05
 Reference value :  1.72510e-05
 Reference value :  1.72518e-05
 Reference value :  1.72528e-05
 Reference value :  1.72538e-05
 Reference value :  1.72548e-05
 Reference value :  1.72565e-05
 Reference value :  1.72628e-05
 Reference value :  1.73220e-05
 Reference value :  1.75000e-05
 Reference value :  1.75001e-05
 Reference value :  1.75003e-05
 Reference value :  1.75012e-05
 Reference value :  1.75020e-05
 Reference value :  1.75029e-05
 Reference value :  1.75047e-05
 Reference value :  1.75065e-05
 Reference value :  1.75090e-05
 Reference value :  1.75115e-05
 Reference value :  1.75141e-05
 Reference value :  1.75179e-05
 Reference value :  1.75505e-05
 Reference value :  1.77501e-05
 Reference value :  1.77502e-05
 Reference value :  1.77502e-05
 Reference value :  1.77503e-05
 Reference value :  1.77507e-05
 Reference value :  1.77514e-05
 Reference value :  1.77523e-05
 Reference value :  1.77534e-05
 Reference value :  1.77545e-05
 Reference value :  1.77558e-05
 Reference value :  1.77602e-05
 Reference value :  1.77822e-05
 Reference value :  1.79560e-05
 Reference value :  1.80007e-05
 Reference value :  1.80030e-05
 Reference value :  1.80044e-05
 Reference value :  1.80056e-05
 Reference value :  1.80080e-05
 Reference value :  1.80107e-05
 Reference value :  1.80130e-05
 Reference value :  1.80149e-05
 Reference value :  1.80183e-05
 Reference value :  1.80340e-05
 Reference value :  1.80957e-05
 Reference value :  1.81380e-05
 Reference value :  1.81730e-05
 Reference value :  1.82501e-05
 Reference value :  1.82503e-05
 Reference value :  1.82510e-05
 Reference value :  1.82519e-05
 Reference value :  1.82534e-05
 Reference value :  1.82559e-05
 Reference value :  1.83644e-05
 Reference value :  1.85001e-05
 Reference value :  1.85003e-05
 Reference value :  1.85012e-05
 Reference value :  1.85019e-05
 Reference value :  1.85033e-05
 Reference value :  1.85054e-05
 Reference value :  1.85066e-05
 Reference value :  1.85092e-05
 Reference value :  1.85136e-05
 Reference value :  1.86423e-05
 Reference value :  1.87502e-05
 Reference value :  1.87503e-05
 Reference value :  1.87510e-05
 Reference value :  1.87523e-05
 Reference value :  1.87534e-05
 Reference value :  1.87550e-05
 Reference value :  1.87566e-05
 Reference value :  1.87596e-05
 Reference value :  1.87748e-05
 Reference value :  1.89980e-05
 Reference value :  1.90001e-05
 Reference value :  1.90002e-05
 Reference value :  1.90008e-05
 Reference value :  1.90016e-05
 Reference value :  1.90024e-05
 Reference value :  1.90034e-05
 Reference value :  1.90044e-05
 Reference value :  1.90053e-05
 Reference value :  1.90076e-05
 Reference value :  1.90093e-05
 Reference value :  1.90111e-05
 Reference value :  1.90136e-05
 Reference value :  1.90164e-05
 Reference value :  1.90242e-05
 Reference value :  1.90722e-05
 Reference value :  1.90864e-05
 Reference value :  1.91030e-05
 Reference value :  1.91135e-05
 Reference value :  1.91797e-05
 Reference value :  1.92501e-05
 Reference value :  1.92502e-05
 Reference value :  1.92503e-05
 Reference value :  1.92507e-05
 Reference value :  1.92514e-05
 Reference value :  1.92523e-05
 Reference value :  1.92534e-05
 Reference value :  1.92546e-05
 Reference value :  1.92560e-05
 Reference value :  1.92616e-05
 Reference value :  1.92867e-05
 Reference value :  1.94871e-05
 Reference value :  1.95002e-05
 Reference value :  1.95009e-05
 Reference value :  1.95015e-05
 Reference value :  1.95023e-05
 Reference value :  1.95029e-05
 Reference value :  1.95040e-05
 Reference value :  1.95055e-05
 Reference value :  1.95063e-05
 Reference value :  1.95077e-05
 Reference value :  1.95096e-05
 Reference value :  1.95166e-05
 Reference value :  1.95585e-05
 Reference value :  1.97501e-05
 Reference value :  1.97502e-05
 Reference value :  1.97502e-05
 Reference value :  1.97504e-05
 Reference value :  1.97514e-05
 Reference value :  1.97530e-05
 Reference value :  1.97534e-05
 Reference value :  1.97545e-05
 Reference value :  1.97558e-05
 Reference value :  1.97602e-05
 Reference value :  1.97820e-05
 Reference value :  1.99547e-05
 Reference value :  2.00000e-05
 Reference value :  2.00001e-05
 Reference value :  2.00002e-05
 Reference value :  2.00005e-05
 Reference value :  2.00012e-05
 Reference value :  2.00020e-05
 Reference value :  2.00029e-05
 Reference value :  2.00045e-05
 Reference value :  2.00055e-05
 Reference value :  2.00085e-05
 Reference value :  2.00112e-05
 Reference value :  2.00132e-05
 Reference value :  2.00152e-05
 Reference value :  2.00191e-05
 Reference value :  2.00282e-05
 Reference value :  2.00380e-05
 Reference value :  2.00475e-05
 Reference value :  2.00571e-05
 Reference value :  2.00749e-05
 Reference value :  2.01321e-05
 Reference value :  2.02501e-05
 Reference value :  2.02502e-05
 Reference value :  2.02503e-05
 Reference value :  2.02510e-05
 Reference value :  2.02519e-05
 Reference value :  2.02534e-05
 Reference value :  2.02553e-05
 Reference value :  2.02615e-05
 Reference value :  2.03689e-05
 Reference value :  2.05004e-05
 Reference value :  2.05014e-05
 Reference value :  2.05028e-05
 Reference value :  2.05039e-05
 Reference value :  2.05060e-05
 Reference value :  2.05075e-05
 Reference value :  2.05102e-05
 Reference value :  2.05322e-05
 Reference value :  2.07501e-05
 Reference value :  2.07502e-05
 Reference value :  2.07507e-05
 Reference value :  2.07519e-05
 Reference value :  2.07530e-05
 Reference value :  2.07540e-05
 Reference value :  2.07550e-05
 Reference value :  2.07575e-05
 Reference value :  2.07610e-05
 Reference value :  2.08196e-05
 Reference value :  2.10000e-05
 Reference value :  2.10001e-05
 Reference value :  2.10005e-05
 Reference value :  2.10016e-05
 Reference value :  2.10029e-05
 Reference value :  2.10039e-05
 Reference value :  2.10048e-05
 Reference value :  2.10066e-05
 Reference value :  2.10084e-05
 Reference value :  2.10102e-05
 Reference value :  2.10119e-05
 Reference value :  2.10144e-05
 Reference value :  2.10173e-05
 Reference value :  2.10239e-05
 Reference value :  2.10274e-05
 Reference value :  2.10353e-05
 Reference value :  2.10385e-05
 Reference value :  2.10434e-05
 Reference value :  2.10535e-05
 Reference value :  2.10915e-05
 Reference value :  2.12501e-05
 Reference value :  2.12502e-05
 Reference value :  2.12503e-05
 Reference value :  2.12507e-05
 Reference value :  2.12514e-05
 Reference value :  2.12523e-05
 Reference value :  2.12534e-05
 Reference value :  2.12546e-05
 Reference value :  2.12560e-05
 Reference value :  2.12616e-05
 Reference value :  2.12867e-05
 Reference value :  2.14871e-05
 Reference value :  2.15000e-05
 Reference value :  2.15001e-05
 Reference value :  2.15002e-05
 Reference value :  2.15003e-05
 Reference value :  2.15012e-05
 Reference value :  2.15020e-05
 Reference value :  2.15029e-05
 Reference value :  2.15047e-05
 Reference value :  2.15062e-05
 Reference value :  2.15077e-05
 Reference value :  2.15109e-05
 Reference value :  2.15295e-05
 Reference value :  2.17501e-05
 Reference value :  2.17502e-05
 Reference value :  2.17502e-05
 Reference value :  2.17504e-05
 Reference value :  2.17510e-05
 Reference value :  2.17514e-05
 Reference value :  2.17523e-05
 Reference value :  2.17534e-05
 Reference value :  2.17545e-05
 Reference value :  2.17558e-05
 Reference value :  2.17602e-05
 Reference value :  2.18069e-05
 Reference value :  2.20008e-05
 Reference value :  2.20023e-05
 Reference value :  2.20031e-05
 Reference value :  2.20045e-05
 Reference value :  2.20056e-05
 Reference value :  2.20080e-05
 Reference value :  2.20096e-05
 Reference value :  2.20108e-05
 Reference value :  2.20131e-05
 Reference value :  2.20148e-05
 Reference value :  2.20169e-05
 Reference value :  2.20222e-05
 Reference value :  2.20361e-05
 Reference value :  2.20482e-05
 Reference value :  2.20593e-05
 Reference value :  2.20773e-05
 Reference value :  2.21280e-05
 Reference value :  2.22501e-05
 Reference value :  2.22502e-05
 Reference value :  2.22503e-05
 Reference value :  2.22507e-05
 Reference value :  2.22514e-05
 Reference value :  2.22530e-05
 Reference value :  2.22539e-05
 Reference value :  2.22559e-05
 Reference value :  2.22614e-05
 Reference value :  2.22844e-05
 Reference value :  2.24679e-05
 Reference value :  2.25000e-05
 Reference value :  2.25001e-05
 Reference value :  2.25002e-05
 Reference value :  2.25008e-05
 Reference value :  2.25015e-05
 Reference value :  2.25023e-05
 Reference value :  2.25033e-05
 Reference value :  2.25054e-05
 Reference value :  2.25060e-05
 Reference value :  2.25075e-05
 Reference value :  2.25092e-05
 Reference value :  2.25114e-05
 Reference value :  2.25222e-05
 Reference value :  2.25797e-05
 Reference value :  2.27501e-05
 Reference value :  2.27502e-05
 Reference value :  2.27503e-05
 Reference value :  2.27504e-05
 Reference value :  2.27514e-05
 Reference value :  2.27523e-05
 Reference value :  2.27534e-05
 Reference value :  2.27545e-05
 Reference value :  2.27558e-05
 Reference value :  2.27575e-05
 Reference value :  2.27596e-05
 Reference value :  2.27672e-05
 Reference value :  2.28177e-05
 Reference value :  2.30000e-05
 Reference value :  2.30002e-05
 Reference value :  2.30007e-05
 Reference value :  2.30015e-05
 Reference value :  2.30023e-05
 Reference value :  2.30028e-05
 Reference value :  2.30037e-05
 Reference value :  2.30047e-05
 Reference value :  2.30064e-05
 Reference value :  2.30092e-05
 Reference value :  2.30111e-05
 Reference value :  2.30126e-05
 Reference value :  2.30145e-05
 Reference value :  2.30164e-05
 Reference value :  2.30209e-05
 Reference value :  2.30267e-05
 Reference value :  2.30358e-05
 Reference value :  2.30446e-05
 Reference value :  2.30490e-05
 Reference value :  2.30595e-05
 Reference value :  2.31002e-05
 Reference value :  2.32501e-05
 Reference value :  2.32501e-05
 Reference value :  2.32502e-05
 Reference value :  2.32503e-05
 Reference value :  2.32510e-05
 Reference value :  2.32519e-05
 Reference value :  2.32530e-05
 Reference value :  2.32540e-05
 Reference value :  2.32552e-05
 Reference value :  2.32589e-05
 Reference value :  2.32724e-05
 Reference value :  2.33728e-05
 Reference value :  2.35000e-05
 Reference value :  2.35001e-05
 Reference value :  2.35001e-05
 Reference value :  2.35003e-05
 Reference value :  2.35008e-05
 Reference value :  2.35016e-05
 Reference value :  2.35024e-05
 Reference value :  2.35029e-05
 Reference value :  2.35040e-05
 Reference value :  2.35055e-05
 Reference value :  2.35062e-05
 Reference value :  2.35077e-05
 Reference value :  2.35096e-05
 Reference value :  2.35155e-05
 Reference value :  2.35467e-05
 Reference value :  2.37501e-05
 Reference value :  2.37501e-05
 Reference value :  2.37502e-05
 Reference value :  2.37503e-05
 Reference value :  2.37510e-05
 Reference value :  2.37519e-05
 Reference value :  2.37530e-05
 Reference value :  2.37534e-05
 Reference value :  2.37545e-05
 Reference value :  2.37558e-05
 Reference value :  2.37603e-05
 Reference value :  2.38069e-05
 Reference value :  2.40000e-05
 Reference value :  2.40001e-05
 Reference value :  2.40002e-05
 Reference value :  2.40008e-05
 Reference value :  2.40016e-05
 Reference value :  2.40029e-05
 Reference value :  2.40045e-05
 Reference value :  2.40063e-05
 Reference value :  2.40099e-05
 Reference value :  2.40122e-05
 Reference value :  2.40152e-05
 Reference value :  2.40173e-05
 Reference value :  2.40231e-05
 Reference value :  2.40271e-05
 Reference value :  2.40369e-05
 Reference value :  2.40539e-05
 Reference value :  2.40928e-05
 Reference value :  2.42501e-05
 Reference value :  2.42502e-05
 Reference value :  2.42502e-05
 Reference value :  2.42504e-05
 Reference value :  2.42514e-05
 Reference value :  2.42530e-05
 Reference value :  2.42539e-05
 Reference value :  2.42559e-05
 Reference value :  2.42614e-05
 Reference value :  2.43124e-05
 Reference value :  2.45000e-05
 Reference value :  2.45001e-05
 Reference value :  2.45001e-05
 Reference value :  2.45003e-05
 Reference value :  2.45012e-05
 Reference value :  2.45019e-05
 Reference value :  2.45028e-05
 Reference value :  2.45039e-05
 Reference value :  2.45054e-05
 Reference value :  2.45060e-05
 Reference value :  2.45075e-05
 Reference value :  2.45092e-05
 Reference value :  2.45114e-05
 Reference value :  2.45317e-05
 Reference value :  2.46437e-05
 Reference value :  2.47501e-05
 Reference value :  2.47502e-05
 Reference value :  2.47504e-05
 Reference value :  2.47514e-05
 Reference value :  2.47523e-05
 Reference value :  2.47534e-05
 Reference value :  2.47545e-05
 Reference value :  2.47558e-05
 Reference value :  2.47583e-05
 Reference value :  2.47610e-05
 Reference value :  2.47890e-05
 Reference value :  2.49922e-05
 Reference value :  2.50000e-05
 Reference value :  2.50001e-05
 Reference value :  2.50002e-05
 Reference value :  2.50008e-05
 Reference value :  2.50016e-05
 Reference value :  2.50024e-05
 Reference value :  2.50034e-05
 Reference value :  2.50044e-05
 Reference value :  2.50053e-05
 Reference value :  2.50066e-05
 Reference value :  2.50090e-05
 Reference value :  2.50126e-05
 Reference value :  2.50200e-05
 Reference value :  2.50536e-05
 Reference value :  2.50964e-05
 Reference value :  2.52351e-05
 Reference value :  2.52501e-05
 Reference value :  2.52502e-05
 Reference value :  2.52503e-05
 Reference value :  2.52507e-05
 Reference value :  2.52514e-05
 Reference value :  2.52523e-05
 Reference value :  2.52536e-05
 Reference value :  2.52553e-05
 Reference value :  2.52577e-05
 Reference value :  2.52663e-05
 Reference value :  2.53217e-05
 Reference value :  2.55021e-05
 Reference value :  2.55085e-05
 Reference value :  2.55155e-05
 Reference value :  2.55229e-05
 Reference value :  2.55256e-05
 Reference value :  2.55280e-05
 Reference value :  2.55314e-05
 Reference value :  2.55346e-05
 Reference value :  2.55367e-05
 Reference value :  2.55387e-05
 Reference value :  2.55454e-05
 Reference value :  2.55644e-05
 Reference value :  2.56141e-05
 Reference value :  2.57501e-05
 Reference value :  2.57502e-05
 Reference value :  2.57502e-05
 Reference value :  2.57504e-05
 Reference value :  2.57510e-05
 Reference value :  2.57518e-05
 Reference value :  2.57528e-05
 Reference value :  2.57533e-05
 Reference value :  2.57543e-05
 Reference value :  2.57556e-05
 Reference value :  2.57628e-05
 Reference value :  2.58220e-05
 Reference value :  2.60000e-05
 Reference value :  2.60001e-05
 Reference value :  2.60002e-05
 Reference value :  2.60005e-05
 Reference value :  2.60012e-05
 Reference value :  2.60020e-05
 Reference value :  2.60034e-05
 Reference value :  2.60055e-05
 Reference value :  2.60078e-05
 Reference value :  2.60115e-05
 Reference value :  2.60142e-05
 Reference value :  2.60271e-05
 Reference value :  2.61359e-05
 Reference value :  2.62501e-05
 Reference value :  2.62502e-05
 Reference value :  2.62507e-05
 Reference value :  2.62514e-05
 Reference value :  2.62530e-05
 Reference value :  2.62540e-05
 Reference value :  2.62550e-05
 Reference value :  2.62566e-05
 Reference value :  2.62697e-05
 Reference value :  2.64559e-05
 Reference value :  2.65007e-05
 Reference value :  2.65030e-05
 Reference value :  2.65044e-05
 Reference value :  2.65050e-05
 Reference value :  2.65062e-05
 Reference value :  2.65094e-05
 Reference value :  2.65121e-05
 Reference value :  2.65139e-05
 Reference value :  2.65159e-05
 Reference value :  2.65202e-05
 Reference value :  2.65468e-05
 Reference value :  2.65952e-05
 Reference value :  2.66296e-05
 Reference value :  2.66463e-05
 Reference value :  2.66975e-05
 Reference value :  2.67501e-05
 Reference value :  2.67502e-05
 Reference value :  2.67503e-05
 Reference value :  2.67510e-05
 Reference value :  2.67519e-05
 Reference value :  2.67530e-05
 Reference value :  2.67539e-05
 Reference value :  2.67552e-05
 Reference value :  2.67587e-05
 Reference value :  2.67848e-05
 Reference value :  2.70000e-05
 Reference value :  2.70001e-05
 Reference value :  2.70001e-05
 Reference value :  2.70003e-05
 Reference value :  2.70008e-05
 Reference value :  2.70015e-05
 Reference value :  2.70028e-05
 Reference value :  2.70039e-05
 Reference value :  2.70054e-05
 Reference value :  2.70066e-05
 Reference value :  2.70084e-05
 Reference value :  2.70103e-05
 Reference value :  2.70221e-05
 Reference value :  2.71422e-05
 Reference value :  2.72501e-05
 Reference value :  2.72502e-05
 Reference value :  2.72503e-05
 Reference value :  2.72510e-05
 Reference value :  2.72519e-05
 Reference value :  2.72530e-05
 Reference value :  2.72534e-05
 Reference value :  2.72545e-05
 Reference value :  2.72558e-05
 Reference value :  2.72583e-05
 Reference value :  2.72610e-05
 Reference value :  2.72747e-05
 Reference value :  2.73784e-05
 Reference value :  2.75000e-05
 Reference value :  2.75001e-05
 Reference value :  2.75003e-05
 Reference value :  2.75012e-05
 Reference value :  2.75020e-05
 Reference value :  2.75029e-05
 Reference value :  2.75039e-05
 Reference value :  2.75048e-05
 Reference value :  2.75076e-05
 Reference value :  2.75093e-05
 Reference value :  2.75102e-05
 Reference value :  2.75119e-05
 Reference value :  2.75136e-05
 Reference value :  2.75164e-05
 Reference value :  2.75209e-05
 Reference value :  2.75566e-05
 Reference value :  2.75933e-05
 Reference value :  2.76147e-05
 Reference value :  2.76437e-05
 Reference value :  2.77041e-05
 Reference value :  2.77501e-05
 Reference value :  2.77502e-05
 Reference value :  2.77503e-05
 Reference value :  2.77504e-05
 Reference value :  2.77510e-05
 Reference value :  2.77514e-05
 Reference value :  2.77523e-05
 Reference value :  2.77535e-05
 Reference value :  2.77546e-05
 Reference value :  2.77560e-05
 Reference value :  2.77589e-05
 Reference value :  2.77724e-05
 Reference value :  2.78729e-05
 Reference value :  2.80002e-05
 Reference value :  2.80009e-05
 Reference value :  2.80015e-05
 Reference value :  2.80027e-05
 Reference value :  2.80052e-05
 Reference value :  2.80065e-05
 Reference value :  2.80090e-05
 Reference value :  2.80167e-05
 Reference value :  2.81151e-05
 Reference value :  2.82502e-05
 Reference value :  2.82507e-05
 Reference value :  2.82523e-05
 Reference value :  2.82540e-05
 Reference value :  2.82558e-05
 Reference value :  2.82816e-05
 Reference value :  2.85000e-05
 Reference value :  2.85002e-05
 Reference value :  2.85008e-05
 Reference value :  2.85020e-05
 Reference value :  2.85034e-05
 Reference value :  2.85050e-05
 Reference value :  2.85085e-05
 Reference value :  2.85112e-05
 Reference value :  2.85132e-05
 Reference value :  2.85152e-05
 Reference value :  2.85191e-05
 Reference value :  2.85283e-05
 Reference value :  2.85380e-05
 Reference value :  2.85449e-05
 Reference value :  2.85525e-05
 Reference value :  2.85624e-05
 Reference value :  2.85804e-05
 Reference value :  2.86786e-05
 Reference value :  2.87501e-05
 Reference value :  2.87502e-05
 Reference value :  2.87503e-05
 Reference value :  2.87510e-05
 Reference value :  2.87519e-05
 Reference value :  2.87530e-05
 Reference value :  2.87539e-05
 Reference value :  2.87559e-05
 Reference value :  2.87649e-05
 Reference value :  2.88689e-05
 Reference value :  2.90004e-05
 Reference value :  2.90014e-05
 Reference value :  2.90027e-05
 Reference value :  2.90039e-05
 Reference value :  2.90053e-05
 Reference value :  2.90060e-05
 Reference value :  2.90075e-05
 Reference value :  2.90102e-05
 Reference value :  2.90166e-05
 Reference value :  2.90520e-05
 Reference value :  2.92501e-05
 Reference value :  2.92502e-05
 Reference value :  2.92503e-05
 Reference value :  2.92507e-05
 Reference value :  2.92514e-05
 Reference value :  2.92530e-05
 Reference value :  2.92540e-05
 Reference value :  2.92550e-05
 Reference value :  2.92566e-05
 Reference value :  2.92584e-05
 Reference value :  2.92636e-05
 Reference value :  2.92897e-05
 Reference value :  2.95000e-05
 Reference value :  2.95000e-05
 Reference value :  2.95001e-05
 Reference value :  2.95002e-05
 Reference value :  2.95003e-05
 Reference value :  2.95008e-05
 Reference value :  2.95016e-05
 Reference value :  2.95024e-05
 Reference value :  2.95034e-05
 Reference value :  2.95044e-05
 Reference value :  2.95053e-05
 Reference value :  2.95076e-05
 Reference value :  2.95093e-05
 Reference value :  2.95102e-05
 Reference value :  2.95119e-05
 Reference value :  2.95136e-05
 Reference value :  2.95154e-05
 Reference value :  2.95173e-05
 Reference value :  2.95239e-05
 Reference value :  2.95351e-05
 Reference value :  2.95405e-05
 Reference value :  2.95444e-05
 Reference value :  2.95505e-05
 Reference value :  2.95587e-05
 Reference value :  2.95704e-05
 Reference value :  2.96117e-05
 Reference value :  2.97501e-05
 Reference value :  2.97501e-05
 Reference value :  2.97502e-05
 Reference value :  2.97503e-05
 Reference value :  2.97507e-05
 Reference value :  2.97514e-05
 Reference value :  2.97530e-05
 Reference value :  2.97540e-05
 Reference value :  2.97552e-05
 Reference value :  2.97589e-05
 Reference value :  2.97867e-05
 Reference value :  3.00000e-05
 Reference value :  3.00001e-05
 Reference value :  3.00002e-05
 Reference value :  3.00008e-05
 Reference value :  3.00016e-05
 Reference value :  3.00029e-05
 Reference value :  3.00047e-05
 Reference value :  3.00062e-05
 Reference value :  3.00087e-05
 Reference value :  3.00205e-05
 Reference value :  3.01527e-05
 Reference value :  3.02502e-05
 Reference value :  3.02503e-05
 Reference value :  3.02514e-05
 Reference value :  3.02534e-05
 Reference value :  3.02550e-05
 Reference value :  3.02602e-05
 Reference value :  3.03564e-05
 Reference value :  3.05008e-05
 Reference value :  3.05031e-05
 Reference value :  3.05045e-05
 Reference value :  3.05056e-05
 Reference value :  3.05096e-05
 Reference value :  3.05108e-05
 Reference value :  3.05131e-05
 Reference value :  3.05148e-05
 Reference value :  3.05169e-05
 Reference value :  3.05222e-05
 Reference value :  3.05349e-05
 Reference value :  3.05440e-05
 Reference value :  3.05590e-05
 Reference value :  3.05925e-05
 Reference value :  3.07501e-05
 Reference value :  3.07502e-05
 Reference value :  3.07503e-05
 Reference value :  3.07507e-05
 Reference value :  3.07519e-05
 Reference value :  3.07534e-05
 Reference value :  3.07552e-05
 Reference value :  3.07615e-05
 Reference value :  3.08644e-05
 Reference value :  3.10001e-05
 Reference value :  3.10001e-05
 Reference value :  3.10003e-05
 Reference value :  3.10012e-05
 Reference value :  3.10019e-05
 Reference value :  3.10028e-05
 Reference value :  3.10046e-05
 Reference value :  3.10060e-05
 Reference value :  3.10075e-05
 Reference value :  3.10103e-05
 Reference value :  3.10476e-05
 Reference value :  3.12502e-05
 Reference value :  3.12503e-05
 Reference value :  3.12514e-05
 Reference value :  3.12530e-05
 Reference value :  3.12534e-05
 Reference value :  3.12545e-05
 Reference value :  3.12558e-05
 Reference value :  3.12583e-05
 Reference value :  3.12636e-05
 Reference value :  3.13176e-05
 Reference value :  3.15000e-05
 Reference value :  3.15001e-05
 Reference value :  3.15002e-05
 Reference value :  3.15005e-05
 Reference value :  3.15012e-05
 Reference value :  3.15020e-05
 Reference value :  3.15029e-05
 Reference value :  3.15039e-05
 Reference value :  3.15048e-05
 Reference value :  3.15066e-05
 Reference value :  3.15085e-05
 Reference value :  3.15102e-05
 Reference value :  3.15119e-05
 Reference value :  3.15144e-05
 Reference value :  3.15172e-05
 Reference value :  3.15203e-05
 Reference value :  3.15339e-05
 Reference value :  3.15708e-05
 Reference value :  3.16223e-05
 Reference value :  3.17501e-05
 Reference value :  3.17502e-05
 Reference value :  3.17503e-05
 Reference value :  3.17507e-05
 Reference value :  3.17514e-05
 Reference value :  3.17530e-05
 Reference value :  3.17534e-05
 Reference value :  3.17546e-05
 Reference value :  3.17575e-05
 Reference value :  3.17654e-05
 Reference value :  3.18167e-05
 Reference value :  3.20000e-05
 Reference value :  3.20000e-05
 Reference value :  3.20001e-05
 Reference value :  3.20002e-05
 Reference value :  3.20005e-05
 Reference value :  3.20008e-05
 Reference value :  3.20015e-05
 Reference value :  3.20023e-05
 Reference value :  3.20028e-05
 Reference value :  3.20039e-05
 Reference value :  3.20054e-05
 Reference value :  3.20060e-05
 Reference value :  3.20075e-05
 Reference value :  3.20092e-05
 Reference value :  3.20114e-05
 Reference value :  3.20221e-05
 Reference value :  3.20474e-05
 Reference value :  3.21423e-05
 Reference value :  3.22501e-05
 Reference value :  3.22502e-05
 Reference value :  3.22502e-05
 Reference value :  3.22503e-05
 Reference value :  3.22507e-05
 Reference value :  3.22514e-05
 Reference value :  3.22530e-05
 Reference value :  3.22534e-05
 Reference value :  3.22545e-05
 Reference value :  3.22558e-05
 Reference value :  3.22575e-05
 Reference value :  3.22596e-05
 Reference value :  3.22636e-05
 Reference value :  3.22745e-05
 Reference value :  3.23768e-05
 Reference value :  3.25000e-05
 Reference value :  3.25001e-05
 Reference value :  3.25001e-05
 Reference value :  3.25002e-05
 Reference value :  3.25005e-05
 Reference value :  3.25012e-05
 Reference value :  3.25020e-05
 Reference value :  3.25029e-05
 Reference value :  3.25039e-05
 Reference value :  3.25048e-05
 Reference value :  3.25066e-05
 Reference value :  3.25085e-05
 Reference value :  3.25102e-05
 Reference value :  3.25119e-05
 Reference value :  3.25136e-05
 Reference value :  3.25154e-05
 Reference value :  3.25175e-05
 Reference value :  3.25246e-05
 Reference value :  3.25492e-05
 Reference value :  3.26561e-05
 Reference value :  3.27501e-05
 Reference value :  3.27502e-05
 Reference value :  3.27503e-05
 Reference value :  3.27510e-05
 Reference value :  3.27519e-05
 Reference value :  3.27534e-05
 Reference value :  3.27546e-05
 Reference value :  3.27575e-05
 Reference value :  3.27728e-05
 Reference value :  3.28756e-05
 Reference value :  3.30000e-05
 Reference value :  3.30001e-05
 Reference value :  3.30002e-05
 Reference value :  3.30008e-05
 Reference value :  3.30015e-05
 Reference value :  3.30023e-05
 Reference value :  3.30028e-05
 Reference value :  3.30039e-05
 Reference value :  3.30054e-05
 Reference value :  3.30060e-05
 Reference value :  3.30075e-05
 Reference value :  3.30092e-05
 Reference value :  3.30103e-05
 Reference value :  3.30167e-05
 Reference value :  3.30473e-05
 Reference value :  3.32501e-05
 Reference value :  3.32502e-05
 Reference value :  3.32502e-05
 Reference value :  3.32504e-05
 Reference value :  3.32514e-05
 Reference value :  3.32523e-05
 Reference value :  3.32534e-05
 Reference value :  3.32545e-05
 Reference value :  3.32558e-05
 Reference value :  3.32575e-05
 Reference value :  3.32596e-05
 Reference value :  3.32673e-05
 Reference value :  3.33185e-05
 Reference value :  3.35000e-05
 Reference value :  3.35001e-05
 Reference value :  3.35004e-05
 Reference value :  3.35010e-05
 Reference value :  3.35018e-05
 Reference value :  3.35026e-05
 Reference value :  3.35036e-05
 Reference value :  3.35045e-05
 Reference value :  3.35063e-05
 Reference value :  3.35070e-05
 Reference value :  3.35084e-05
 Reference value :  3.35100e-05
 Reference value :  3.35127e-05
 Reference value :  3.35177e-05
 Reference value :  3.35257e-05
 Reference value :  3.35380e-05
 Reference value :  3.35514e-05
 Reference value :  3.35647e-05
 Reference value :  3.35905e-05
 Reference value :  3.36843e-05
 Reference value :  3.37501e-05
 Reference value :  3.37502e-05
 Reference value :  3.37503e-05
 Reference value :  3.37510e-05
 Reference value :  3.37519e-05
 Reference value :  3.37530e-05
 Reference value :  3.37545e-05
 Reference value :  3.37562e-05
 Reference value :  3.37591e-05
 Reference value :  3.37744e-05
 Reference value :  3.40000e-05
 Reference value :  3.40001e-05
 Reference value :  3.40001e-05
 Reference value :  3.40003e-05
 Reference value :  3.40009e-05
 Reference value :  3.40018e-05
 Reference value :  3.40028e-05
 Reference value :  3.40034e-05
 Reference value :  3.40044e-05
 Reference value :  3.40055e-05
 Reference value :  3.40088e-05
 Reference value :  3.40217e-05
 Reference value :  3.40257e-05
 Reference value :  3.40287e-05
 Reference value :  3.40335e-05
 Reference value :  3.40376e-05
 Reference value :  3.40455e-05
 Reference value :  3.40610e-05
 Reference value :  3.41008e-05
 Reference value :  3.42501e-05
 Reference value :  3.42502e-05
 Reference value :  3.42503e-05
 Reference value :  3.42507e-05
 Reference value :  3.42514e-05
 Reference value :  3.42530e-05
 Reference value :  3.42540e-05
 Reference value :  3.42552e-05
 Reference value :  3.42614e-05
 Reference value :  3.43648e-05
 Reference value :  3.45000e-05
 Reference value :  3.45001e-05
 Reference value :  3.45003e-05
 Reference value :  3.45012e-05
 Reference value :  3.45020e-05
 Reference value :  3.45029e-05
 Reference value :  3.45040e-05
 Reference value :  3.45065e-05
 Reference value :  3.45090e-05
 Reference value :  3.45115e-05
 Reference value :  3.45141e-05
 Reference value :  3.45214e-05
 Reference value :  3.45792e-05
 Reference value :  3.47501e-05
 Reference value :  3.47502e-05
 Reference value :  3.47503e-05
 Reference value :  3.47510e-05
 Reference value :  3.47519e-05
 Reference value :  3.47534e-05
 Reference value :  3.47550e-05
 Reference value :  3.47582e-05
 Reference value :  3.47822e-05
 Reference value :  3.50000e-05
 Reference value :  3.50001e-05
 Reference value :  3.50002e-05
 Reference value :  3.50005e-05
 Reference value :  3.50016e-05
 Reference value :  3.50029e-05
 Reference value :  3.50045e-05
 Reference value :  3.50055e-05
 Reference value :  3.50085e-05
 Reference value :  3.50112e-05
 Reference value :  3.50132e-05
 Reference value :  3.50153e-05
 Reference value :  3.50192e-05
 Reference value :  3.50366e-05
 Reference value :  3.50989e-05
 Reference value :  3.51303e-05
 Reference value :  3.51494e-05
 Reference value :  3.52072e-05
 Reference value :  3.52501e-05
 Reference value :  3.52502e-05
 Reference value :  3.52504e-05
 Reference value :  3.52514e-05
 Reference value :  3.52530e-05
 Reference value :  3.52539e-05
 Reference value :  3.52559e-05
 Reference value :  3.52615e-05
 Reference value :  3.52856e-05
 Reference value :  3.54786e-05
 Reference value :  3.55000e-05
 Reference value :  3.55001e-05
 Reference value :  3.55002e-05
 Reference value :  3.55005e-05
 Reference value :  3.55012e-05
 Reference value :  3.55019e-05
 Reference value :  3.55028e-05
 Reference value :  3.55039e-05
 Reference value :  3.55054e-05
 Reference value :  3.55060e-05
 Reference value :  3.55075e-05
 Reference value :  3.55092e-05
 Reference value :  3.55114e-05
 Reference value :  3.55316e-05
 Reference value :  3.56428e-05
 Reference value :  3.57501e-05
 Reference value :  3.57502e-05
 Reference value :  3.57503e-05
 Reference value :  3.57507e-05
 Reference value :  3.57514e-05
 Reference value :  3.57530e-05
 Reference value :  3.57540e-05
 Reference value :  3.57550e-05
 Reference value :  3.57566e-05
 Reference value :  3.57596e-05
 Reference value :  3.57749e-05
 Reference value :  3.59997e-05
 Reference value :  3.60000e-05
 Reference value :  3.60001e-05
 Reference value :  3.60002e-05
 Reference value :  3.60011e-05
 Reference value :  3.60023e-05
 Reference value :  3.60038e-05
 Reference value :  3.60046e-05
 Reference value :  3.60072e-05
 Reference value :  3.60083e-05
 Reference value :  3.60099e-05
 Reference value :  3.60120e-05
 Reference value :  3.60147e-05
 Reference value :  3.60221e-05
 Reference value :  3.60804e-05
 Reference value :  3.61107e-05
 Reference value :  3.61561e-05
 Reference value :  3.62501e-05
 Reference value :  3.62502e-05
 Reference value :  3.62503e-05
 Reference value :  3.62510e-05
 Reference value :  3.62514e-05
 Reference value :  3.62530e-05
 Reference value :  3.62540e-05
 Reference value :  3.62552e-05
 Reference value :  3.62616e-05
 Reference value :  3.63146e-05
 Reference value :  3.65000e-05
 Reference value :  3.65001e-05
 Reference value :  3.65002e-05
 Reference value :  3.65005e-05
 Reference value :  3.65012e-05
 Reference value :  3.65020e-05
 Reference value :  3.65029e-05
 Reference value :  3.65047e-05
 Reference value :  3.65062e-05
 Reference value :  3.65077e-05
 Reference value :  3.65109e-05
 Reference value :  3.65296e-05
 Reference value :  3.67501e-05
 Reference value :  3.67502e-05
 Reference value :  3.67503e-05
 Reference value :  3.67507e-05
 Reference value :  3.67514e-05
 Reference value :  3.67530e-05
 Reference value :  3.67540e-05
 Reference value :  3.67558e-05
 Reference value :  3.67635e-05
 Reference value :  3.69542e-05
 Reference value :  3.70001e-05
 Reference value :  3.70001e-05
 Reference value :  3.70003e-05
 Reference value :  3.70012e-05
 Reference value :  3.70020e-05
 Reference value :  3.70029e-05
 Reference value :  3.70045e-05
 Reference value :  3.70055e-05
 Reference value :  3.70085e-05
 Reference value :  3.70112e-05
 Reference value :  3.70132e-05
 Reference value :  3.70152e-05
 Reference value :  3.70191e-05
 Reference value :  3.70320e-05
 Reference value :  3.70395e-05
 Reference value :  3.70424e-05
 Reference value :  3.70485e-05
 Reference value :  3.70586e-05
 Reference value :  3.70717e-05
 Reference value :  3.71006e-05
 Reference value :  3.72049e-05
 Reference value :  3.72501e-05
 Reference value :  3.72502e-05
 Reference value :  3.72503e-05
 Reference value :  3.72507e-05
 Reference value :  3.72514e-05
 Reference value :  3.72530e-05
 Reference value :  3.72546e-05
 Reference value :  3.72573e-05
 Reference value :  3.72719e-05
 Reference value :  3.74797e-05
 Reference value :  3.75000e-05
 Reference value :  3.75001e-05
 Reference value :  3.75002e-05
 Reference value :  3.75008e-05
 Reference value :  3.75015e-05
 Reference value :  3.75028e-05
 Reference value :  3.75039e-05
 Reference value :  3.75054e-05
 Reference value :  3.75060e-05
 Reference value :  3.75075e-05
 Reference value :  3.75103e-05
 Reference value :  3.75167e-05
 Reference value :  3.75792e-05
 Reference value :  3.77501e-05
 Reference value :  3.77502e-05
 Reference value :  3.77502e-05
 Reference value :  3.77503e-05
 Reference value :  3.77507e-05
 Reference value :  3.77514e-05
 Reference value :  3.77523e-05
 Reference value :  3.77534e-05
 Reference value :  3.77545e-05
 Reference value :  3.77558e-05
 Reference value :  3.77575e-05
 Reference value :  3.77596e-05
 Reference value :  3.77674e-05
 Reference value :  3.78199e-05
 Reference value :  3.80000e-05
 Reference value :  3.80000e-05
 Reference value :  3.80000e-05
 Reference value :  3.80001e-05
 Reference value :  3.80001e-05
 Reference value :  3.80003e-05
 Reference value :  3.80007e-05
 Reference value :  3.80014e-05
 Reference value :  3.80022e-05
 Reference value :  3.80032e-05
 Reference value :  3.80041e-05
 Reference value :  3.80046e-05
 Reference value :  3.80056e-05
 Reference value :  3.80082e-05
 Reference value :  3.80090e-05
 Reference value :  3.80109e-05
 Reference value :  3.80131e-05
 Reference value :  3.80149e-05
 Reference value :  3.80170e-05
 Reference value :  3.80224e-05
 Reference value :  3.80413e-05
 Reference value :  3.80482e-05
 Reference value :  3.80522e-05
 Reference value :  3.80600e-05
 Reference value :  3.80757e-05
 Reference value :  3.81131e-05
 Reference value :  3.82312e-05
 Reference value :  3.82501e-05
 Reference value :  3.82502e-05
 Reference value :  3.82503e-05
 Reference value :  3.82510e-05
 Reference value :  3.82519e-05
 Reference value :  3.82530e-05
 Reference value :  3.82540e-05
 Reference value :  3.82559e-05
 Reference value :  3.82649e-05
 Reference value :  3.83682e-05
 Reference value :  3.84330e-05
 Reference value :  3.84929e-05
 Reference value :  3.85001e-05
 Reference value :  3.85005e-05
 Reference value :  3.85012e-05
 Reference value :  3.85019e-05
 Reference value :  3.85028e-05
 Reference value :  3.85048e-05
 Reference value :  3.85063e-05
 Reference value :  3.85078e-05
 Reference value :  3.85096e-05
 Reference value :  3.85242e-05
 Reference value :  3.86065e-05
 Reference value :  3.87372e-05
 Reference value :  3.87501e-05
 Reference value :  3.87502e-05
 Reference value :  3.87504e-05
 Reference value :  3.87514e-05
 Reference value :  3.87530e-05
 Reference value :  3.87534e-05
 Reference value :  3.87545e-05
 Reference value :  3.87558e-05
 Reference value :  3.87574e-05
 Reference value :  3.87595e-05
 Reference value :  3.87670e-05
 Reference value :  3.88716e-05
 Reference value :  3.90000e-05
 Reference value :  3.90001e-05
 Reference value :  3.90003e-05
 Reference value :  3.90012e-05
 Reference value :  3.90020e-05
 Reference value :  3.90029e-05
 Reference value :  3.90039e-05
 Reference value :  3.90048e-05
 Reference value :  3.90066e-05
 Reference value :  3.90076e-05
 Reference value :  3.90084e-05
 Reference value :  3.90101e-05
 Reference value :  3.90119e-05
 Reference value :  3.90136e-05
 Reference value :  3.90153e-05
 Reference value :  3.90174e-05
 Reference value :  3.90187e-05
 Reference value :  3.90202e-05
 Reference value :  3.90228e-05
 Reference value :  3.90257e-05
 Reference value :  3.90374e-05
 Reference value :  3.90496e-05
 Reference value :  3.91398e-05
 Reference value :  3.92501e-05
 Reference value :  3.92502e-05
 Reference value :  3.92502e-05
 Reference value :  3.92504e-05
 Reference value :  3.92510e-05
 Reference value :  3.92514e-05
 Reference value :  3.92523e-05
 Reference value :  3.92535e-05
 Reference value :  3.92546e-05
 Reference value :  3.92560e-05
 Reference value :  3.92616e-05
 Reference value :  3.92866e-05
 Reference value :  3.94869e-05
 Reference value :  3.95000e-05
 Reference value :  3.95001e-05
 Reference value :  3.95002e-05
 Reference value :  3.95005e-05
 Reference value :  3.95012e-05
 Reference value :  3.95016e-05
 Reference value :  3.95024e-05
 Reference value :  3.95034e-05
 Reference value :  3.95047e-05
 Reference value :  3.95062e-05
 Reference value :  3.95077e-05
 Reference value :  3.95096e-05
 Reference value :  3.95155e-05
 Reference value :  3.95821e-05
 Reference value :  3.97501e-05
 Reference value :  3.97502e-05
 Reference value :  3.97503e-05
 Reference value :  3.97510e-05
 Reference value :  3.97519e-05
 Reference value :  3.97530e-05
 Reference value :  3.97534e-05
 Reference value :  3.97545e-05
 Reference value :  3.97558e-05
 Reference value :  3.97636e-05
 Reference value :  3.98568e-05
 Reference value :  4.00000e-05
 Reference value :  4.00001e-05
 Reference value :  4.00002e-05
 Reference value :  4.00003e-05
 Reference value :  4.00008e-05
 Reference value :  4.00016e-05
 Reference value :  4.00024e-05
 Reference value :  4.00034e-05
 Reference value :  4.00045e-05
 Reference value :  4.00050e-05
 Reference value :  4.00071e-05
 Reference value :  4.00112e-05
 Reference value :  4.00132e-05
 Reference value :  4.00152e-05
 Reference value :  4.00191e-05
 Reference value :  4.00348e-05
 Reference value :  4.00715e-05
 Reference value :  4.01386e-05
 Reference value :  4.02501e-05
 Reference value :  4.02502e-05
 Reference value :  4.02507e-05
 Reference value :  4.02514e-05
 Reference value :  4.02530e-05
 Reference value :  4.02540e-05
 Reference value :  4.02552e-05
 Reference value :  4.02616e-05
 Reference value :  4.03727e-05
 Reference value :  4.05001e-05
 Reference value :  4.05002e-05
 Reference value :  4.05008e-05
 Reference value :  4.05020e-05
 Reference value :  4.05034e-05
 Reference value :  4.05062e-05
 Reference value :  4.05087e-05
 Reference value :  4.05205e-05
 Reference value :  4.07501e-05
 Reference value :  4.07502e-05
 Reference value :  4.07504e-05
 Reference value :  4.07510e-05
 Reference value :  4.07519e-05
 Reference value :  4.07534e-05
 Reference value :  4.07550e-05
 Reference value :  4.07636e-05
 Reference value :  4.10000e-05
 Reference value :  4.10007e-05
 Reference value :  4.10029e-05
 Reference value :  4.10042e-05
 Reference value :  4.10060e-05
 Reference value :  4.10091e-05
 Reference value :  4.10118e-05
 Reference value :  4.10138e-05
 Reference value :  4.10183e-05
 Reference value :  4.10390e-05
 Reference value :  4.11182e-05
 Reference value :  4.12501e-05
 Reference value :  4.12503e-05
 Reference value :  4.12510e-05
 Reference value :  4.12519e-05
 Reference value :  4.12529e-05
 Reference value :  4.12539e-05
 Reference value :  4.12551e-05
 Reference value :  4.12584e-05
 Reference value :  4.12827e-05
 Reference value :  4.14553e-05
 Reference value :  4.15001e-05
 Reference value :  4.15001e-05
 Reference value :  4.15003e-05
 Reference value :  4.15008e-05
 Reference value :  4.15016e-05
 Reference value :  4.15029e-05
 Reference value :  4.15040e-05
 Reference value :  4.15055e-05
 Reference value :  4.15062e-05
 Reference value :  4.15077e-05
 Reference value :  4.15109e-05
 Reference value :  4.15289e-05
 Reference value :  4.17501e-05
 Reference value :  4.17502e-05
 Reference value :  4.17502e-05
 Reference value :  4.17507e-05
 Reference value :  4.17519e-05
 Reference value :  4.17530e-05
 Reference value :  4.17540e-05
 Reference value :  4.17558e-05
 Reference value :  4.17699e-05
 Reference value :  4.20000e-05
 Reference value :  4.20001e-05
 Reference value :  4.20002e-05
 Reference value :  4.20008e-05
 Reference value :  4.20016e-05
 Reference value :  4.20029e-05
 Reference value :  4.20040e-05
 Reference value :  4.20050e-05
 Reference value :  4.20064e-05
 Reference value :  4.20088e-05
 Reference value :  4.20156e-05
 Reference value :  4.21203e-05
 Reference value :  4.22501e-05
 Reference value :  4.22502e-05
 Reference value :  4.22502e-05
 Reference value :  4.22504e-05
 Reference value :  4.22510e-05
 Reference value :  4.22514e-05
 Reference value :  4.22523e-05
 Reference value :  4.22536e-05
 Reference value :  4.22553e-05
 Reference value :  4.22577e-05
 Reference value :  4.22662e-05
 Reference value :  4.23217e-05
 Reference value :  4.24593e-05
 Reference value :  4.25000e-05
 Reference value :  4.25001e-05
 Reference value :  4.25001e-05
 Reference value :  4.25002e-05
 Reference value :  4.25006e-05
 Reference value :  4.25014e-05
 Reference value :  4.25023e-05
 Reference value :  4.25034e-05
 Reference value :  4.25044e-05
 Reference value :  4.25055e-05
 Reference value :  4.25074e-05
 Reference value :  4.25165e-05
 Reference value :  4.25217e-05
 Reference value :  4.25258e-05
 Reference value :  4.25287e-05
 Reference value :  4.25314e-05
 Reference value :  4.25336e-05
 Reference value :  4.25366e-05
 Reference value :  4.25394e-05
 Reference value :  4.25442e-05
 Reference value :  4.25473e-05
 Reference value :  4.25598e-05
 Reference value :  4.26050e-05
 Reference value :  4.27501e-05
 Reference value :  4.27502e-05
 Reference value :  4.27502e-05
 Reference value :  4.27504e-05
 Reference value :  4.27510e-05
 Reference value :  4.27514e-05
 Reference value :  4.27523e-05
 Reference value :  4.27534e-05
 Reference value :  4.27545e-05
 Reference value :  4.27573e-05
 Reference value :  4.27713e-05
 Reference value :  4.28642e-05
 Reference value :  4.30000e-05
 Reference value :  4.30001e-05
 Reference value :  4.30002e-05
 Reference value :  4.30008e-05
 Reference value :  4.30016e-05
 Reference value :  4.30029e-05
 Reference value :  4.30040e-05
 Reference value :  4.30055e-05
 Reference value :  4.30066e-05
 Reference value :  4.30090e-05
 Reference value :  4.30115e-05
 Reference value :  4.30142e-05
 Reference value :  4.30272e-05
 Reference value :  4.31414e-05
 Reference value :  4.32501e-05
 Reference value :  4.32502e-05
 Reference value :  4.32510e-05
 Reference value :  4.32523e-05
 Reference value :  4.32540e-05
 Reference value :  4.32558e-05
 Reference value :  4.33069e-05
 Reference value :  4.35008e-05
 Reference value :  4.35030e-05
 Reference value :  4.35044e-05
 Reference value :  4.35056e-05
 Reference value :  4.35095e-05
 Reference value :  4.35121e-05
 Reference value :  4.35139e-05
 Reference value :  4.35158e-05
 Reference value :  4.35199e-05
 Reference value :  4.35348e-05
 Reference value :  4.35696e-05
 Reference value :  4.35917e-05
 Reference value :  4.36088e-05
 Reference value :  4.36202e-05
 Reference value :  4.36290e-05
 Reference value :  4.36459e-05
 Reference value :  4.36914e-05
 Reference value :  4.37501e-05
 Reference value :  4.37502e-05
 Reference value :  4.37507e-05
 Reference value :  4.37514e-05
 Reference value :  4.37523e-05
 Reference value :  4.37534e-05
 Reference value :  4.37552e-05
 Reference value :  4.37587e-05
 Reference value :  4.37714e-05
 Reference value :  4.38641e-05
 Reference value :  4.40000e-05
 Reference value :  4.40001e-05
 Reference value :  4.40002e-05
 Reference value :  4.40008e-05
 Reference value :  4.40015e-05
 Reference value :  4.40023e-05
 Reference value :  4.40028e-05
 Reference value :  4.40039e-05
 Reference value :  4.40054e-05
 Reference value :  4.40060e-05
 Reference value :  4.40075e-05
 Reference value :  4.40092e-05
 Reference value :  4.40136e-05
 Reference value :  4.40317e-05
 Reference value :  4.42501e-05
 Reference value :  4.42502e-05
 Reference value :  4.42503e-05
 Reference value :  4.42510e-05
 Reference value :  4.42519e-05
 Reference value :  4.42530e-05
 Reference value :  4.42534e-05
 Reference value :  4.42545e-05
 Reference value :  4.42558e-05
 Reference value :  4.42583e-05
 Reference value :  4.42610e-05
 Reference value :  4.42889e-05
 Reference value :  4.45000e-05
 Reference value :  4.45001e-05
 Reference value :  4.45001e-05
 Reference value :  4.45003e-05
 Reference value :  4.45008e-05
 Reference value :  4.45016e-05
 Reference value :  4.45029e-05
 Reference value :  4.45039e-05
 Reference value :  4.45048e-05
 Reference value :  4.45066e-05
 Reference value :  4.45084e-05
 Reference value :  4.45102e-05
 Reference value :  4.45119e-05
 Reference value :  4.45137e-05
 Reference value :  4.45155e-05
 Reference value :  4.45177e-05
 Reference value :  4.45340e-05
 Reference value :  4.45681e-05
 Reference value :  4.46042e-05
 Reference value :  4.46147e-05
 Reference value :  4.46359e-05
 Reference value :  4.46552e-05
 Reference value :  4.46938e-05
 Reference value :  4.47366e-05
 Reference value :  4.47501e-05
 Reference value :  4.47502e-05
 Reference value :  4.47502e-05
 Reference value :  4.47504e-05
 Reference value :  4.47510e-05
 Reference value :  4.47519e-05
 Reference value :  4.47530e-05
 Reference value :  4.47535e-05
 Reference value :  4.47546e-05
 Reference value :  4.47560e-05
 Reference value :  4.47616e-05
 Reference value :  4.47867e-05
 Reference value :  4.50000e-05
 Reference value :  4.50001e-05
 Reference value :  4.50001e-05
 Reference value :  4.50002e-05
 Reference value :  4.50005e-05
 Reference value :  4.50012e-05
 Reference value :  4.50020e-05
 Reference value :  4.50029e-05
 Reference value :  4.50040e-05
 Reference value :  4.50055e-05
 Reference value :  4.50062e-05
 Reference value :  4.50077e-05
 Reference value :  4.50096e-05
 Reference value :  4.50155e-05
 Reference value :  4.50473e-05
 Reference value :  4.52501e-05
 Reference value :  4.52502e-05
 Reference value :  4.52502e-05
 Reference value :  4.52503e-05
 Reference value :  4.52507e-05
 Reference value :  4.52514e-05
 Reference value :  4.52523e-05
 Reference value :  4.52530e-05
 Reference value :  4.52534e-05
 Reference value :  4.52545e-05
 Reference value :  4.52558e-05
 Reference value :  4.52603e-05
 Reference value :  4.52822e-05
 Reference value :  4.54559e-05
 Reference value :  4.55000e-05
 Reference value :  4.55001e-05
 Reference value :  4.55002e-05
 Reference value :  4.55008e-05
 Reference value :  4.55016e-05
 Reference value :  4.55024e-05
 Reference value :  4.55029e-05
 Reference value :  4.55040e-05
 Reference value :  4.55050e-05
 Reference value :  4.55063e-05
 Reference value :  4.55085e-05
 Reference value :  4.55112e-05
 Reference value :  4.55132e-05
 Reference value :  4.55152e-05
 Reference value :  4.55191e-05
 Reference value :  4.55270e-05
 Reference value :  4.55374e-05
 Reference value :  4.55443e-05
 Reference value :  4.55575e-05
 Reference value :  4.55756e-05
 Reference value :  4.56592e-05
 Reference value :  4.57501e-05
 Reference value :  4.57502e-05
 Reference value :  4.57503e-05
 Reference value :  4.57510e-05
 Reference value :  4.57519e-05
 Reference value :  4.57534e-05
 Reference value :  4.57553e-05
 Reference value :  4.57615e-05
 Reference value :  4.58134e-05
 Reference value :  4.60004e-05
 Reference value :  4.60014e-05
 Reference value :  4.60023e-05
 Reference value :  4.60033e-05
 Reference value :  4.60046e-05
 Reference value :  4.60060e-05
 Reference value :  4.60075e-05
 Reference value :  4.60092e-05
 Reference value :  4.60114e-05
 Reference value :  4.60219e-05
 Reference value :  4.60918e-05
 Reference value :  4.62501e-05
 Reference value :  4.62502e-05
 Reference value :  4.62503e-05
 Reference value :  4.62507e-05
 Reference value :  4.62514e-05
 Reference value :  4.62530e-05
 Reference value :  4.62534e-05
 Reference value :  4.62545e-05
 Reference value :  4.62558e-05
 Reference value :  4.62584e-05
 Reference value :  4.62636e-05
 Reference value :  4.62897e-05
 Reference value :  4.64980e-05
 Reference value :  4.65000e-05
 Reference value :  4.65001e-05
 Reference value :  4.65002e-05
 Reference value :  4.65008e-05
 Reference value :  4.65016e-05
 Reference value :  4.65024e-05
 Reference value :  4.65029e-05
 Reference value :  4.65039e-05
 Reference value :  4.65048e-05
 Reference value :  4.65066e-05
 Reference value :  4.65084e-05
 Reference value :  4.65102e-05
 Reference value :  4.65119e-05
 Reference value :  4.65136e-05
 Reference value :  4.65154e-05
 Reference value :  4.65164e-05
 Reference value :  4.65192e-05
 Reference value :  4.65310e-05
 Reference value :  4.65481e-05
 Reference value :  4.65564e-05
 Reference value :  4.65610e-05
 Reference value :  4.65705e-05
 Reference value :  4.65917e-05
 Reference value :  4.66221e-05
 Reference value :  4.66849e-05
 Reference value :  4.67397e-05
 Reference value :  4.67501e-05
 Reference value :  4.67501e-05
 Reference value :  4.67502e-05
 Reference value :  4.67503e-05
[...]
 Reference value :  2.59503e-04
 Reference value :  2.59505e-04
 Reference value :  2.59506e-04
 Reference value :  2.59507e-04
 Reference value :  2.59509e-04
 Reference value :  2.59511e-04
 Reference value :  2.59532e-04
 Reference value :  2.59750e-04
 Reference value :  2.59750e-04
 Reference value :  2.59750e-04
 Reference value :  2.59750e-04
 Reference value :  2.59751e-04
 Reference value :  2.59753e-04
 Reference value :  2.59754e-04
 Reference value :  2.59756e-04
 Reference value :  2.59758e-04
 Reference value :  2.59764e-04
 Reference value :  2.59819e-04
 Reference value :  2.60000e-04
 Reference value :  2.60000e-04
 Reference value :  2.60001e-04
 Reference value :  2.60001e-04
 Reference value :  2.60002e-04
 Reference value :  2.60003e-04
 Reference value :  2.60004e-04
 Reference value :  2.60005e-04
 Reference value :  2.60007e-04
 Reference value :  2.60008e-04
 Reference value :  2.60010e-04
 Reference value :  2.60012e-04
 Reference value :  2.60014e-04
 Reference value :  2.60016e-04
 Reference value :  2.60024e-04
 Reference value :  2.60044e-04
 Reference value :  2.60075e-04
 Reference value :  2.60123e-04
 Reference value :  2.60147e-04
 Reference value :  2.60207e-04
 Reference value :  2.60250e-04
 Reference value :  2.60250e-04
 Reference value :  2.60250e-04
 Reference value :  2.60251e-04
 Reference value :  2.60252e-04
 Reference value :  2.60253e-04
 Reference value :  2.60254e-04
 Reference value :  2.60256e-04
 Reference value :  2.60265e-04
 Reference value :  2.60375e-04
 Reference value :  2.60500e-04
 Reference value :  2.60500e-04
 Reference value :  2.60500e-04
 Reference value :  2.60501e-04
 Reference value :  2.60502e-04
 Reference value :  2.60503e-04
 Reference value :  2.60505e-04
 Reference value :  2.60506e-04
 Reference value :  2.60507e-04
 Reference value :  2.60509e-04
 Reference value :  2.60511e-04
 Reference value :  2.60522e-04
 Reference value :  2.60642e-04
 Reference value :  2.60750e-04
 Reference value :  2.60750e-04
 Reference value :  2.60750e-04
 Reference value :  2.60751e-04
 Reference value :  2.60753e-04
 Reference value :  2.60754e-04
 Reference value :  2.60755e-04
 Reference value :  2.60757e-04
 Reference value :  2.60760e-04
 Reference value :  2.60775e-04
 Reference value :  2.60996e-04
 Reference value :  2.61000e-04
 Reference value :  2.61000e-04
 Reference value :  2.61000e-04
 Reference value :  2.61001e-04
 Reference value :  2.61002e-04
 Reference value :  2.61003e-04
 Reference value :  2.61004e-04
 Reference value :  2.61005e-04
 Reference value :  2.61007e-04
 Reference value :  2.61009e-04
 Reference value :  2.61010e-04
 Reference value :  2.61012e-04
 Reference value :  2.61014e-04
 Reference value :  2.61017e-04
 Reference value :  2.61024e-04
 Reference value :  2.61041e-04
 Reference value :  2.61074e-04
 Reference value :  2.61086e-04
 Reference value :  2.61096e-04
 Reference value :  2.61118e-04
 Reference value :  2.61179e-04
 Reference value :  2.61248e-04
 Reference value :  2.61250e-04
 Reference value :  2.61250e-04
 Reference value :  2.61251e-04
 Reference value :  2.61252e-04
 Reference value :  2.61253e-04
 Reference value :  2.61255e-04
 Reference value :  2.61259e-04
 Reference value :  2.61286e-04
 Reference value :  2.61343e-04
 Reference value :  2.61441e-04
 Reference value :  2.61500e-04
 Reference value :  2.61500e-04
 Reference value :  2.61500e-04
 Reference value :  2.61501e-04
 Reference value :  2.61502e-04
 Reference value :  2.61503e-04
 Reference value :  2.61505e-04
 Reference value :  2.61506e-04
 Reference value :  2.61507e-04
 Reference value :  2.61510e-04
 Reference value :  2.61531e-04
 Reference value :  2.61750e-04
 Reference value :  2.61750e-04
 Reference value :  2.61750e-04
 Reference value :  2.61751e-04
 Reference value :  2.61753e-04
 Reference value :  2.61754e-04
 Reference value :  2.61755e-04
 Reference value :  2.61757e-04
 Reference value :  2.61760e-04
 Reference value :  2.61775e-04
 Reference value :  2.61994e-04
 Reference value :  2.62000e-04
 Reference value :  2.62000e-04
 Reference value :  2.62000e-04
 Reference value :  2.62001e-04
 Reference value :  2.62002e-04
 Reference value :  2.62002e-04
 Reference value :  2.62003e-04
 Reference value :  2.62004e-04
 Reference value :  2.62005e-04
 Reference value :  2.62008e-04
 Reference value :  2.62009e-04
 Reference value :  2.62010e-04
 Reference value :  2.62012e-04
 Reference value :  2.62013e-04
 Reference value :  2.62016e-04
 Reference value :  2.62018e-04
 Reference value :  2.62032e-04
 Reference value :  2.62039e-04
 Reference value :  2.62053e-04
 Reference value :  2.62085e-04
 Reference value :  2.62250e-04
 Reference value :  2.62250e-04
 Reference value :  2.62250e-04
 Reference value :  2.62251e-04
 Reference value :  2.62252e-04
 Reference value :  2.62253e-04
 Reference value :  2.62254e-04
 Reference value :  2.62255e-04
 Reference value :  2.62259e-04
 Reference value :  2.62287e-04
 Reference value :  2.62487e-04
 Reference value :  2.62500e-04
 Reference value :  2.62500e-04
 Reference value :  2.62500e-04
 Reference value :  2.62501e-04
 Reference value :  2.62502e-04
 Reference value :  2.62503e-04
 Reference value :  2.62504e-04
 Reference value :  2.62506e-04
 Reference value :  2.62506e-04
 Reference value :  2.62508e-04
 Reference value :  2.62510e-04
 Reference value :  2.62521e-04
 Reference value :  2.62583e-04
 Reference value :  2.62750e-04
 Reference value :  2.62750e-04
 Reference value :  2.62750e-04
 Reference value :  2.62751e-04
 Reference value :  2.62752e-04
 Reference value :  2.62753e-04
 Reference value :  2.62753e-04
 Reference value :  2.62754e-04
 Reference value :  2.62756e-04
 Reference value :  2.62760e-04
 Reference value :  2.62782e-04
 Reference value :  2.63000e-04
 Reference value :  2.63000e-04
 Reference value :  2.63000e-04
 Reference value :  2.63000e-04
 Reference value :  2.63001e-04
 Reference value :  2.63002e-04
 Reference value :  2.63002e-04
 Reference value :  2.63003e-04
 Reference value :  2.63005e-04
 Reference value :  2.63006e-04
 Reference value :  2.63007e-04
 Reference value :  2.63009e-04
 Reference value :  2.63037e-04
 Reference value :  2.63250e-04
 Reference value :  2.63250e-04
 Reference value :  2.63250e-04
 Reference value :  2.63251e-04
 Reference value :  2.63251e-04
 Reference value :  2.63253e-04
 Reference value :  2.63255e-04
 Reference value :  2.63258e-04
 Reference value :  2.63266e-04
 Reference value :  2.63322e-04
 Reference value :  2.63500e-04
 Reference value :  2.63500e-04
 Reference value :  2.63500e-04
 Reference value :  2.63501e-04
 Reference value :  2.63503e-04
 Reference value :  2.63505e-04
 Reference value :  2.63509e-04
 Reference value :  2.63522e-04
 Reference value :  2.63526e-04
 Reference value :  2.63531e-04
 Reference value :  2.63537e-04
 Reference value :  2.63547e-04
 Reference value :  2.63605e-04
 Reference value :  2.63750e-04
 Reference value :  2.63750e-04
 Reference value :  2.63750e-04
 Reference value :  2.63751e-04
 Reference value :  2.63753e-04
 Reference value :  2.63755e-04
 Reference value :  2.63771e-04
 Reference value :  2.64000e-04
 Reference value :  2.64000e-04
 Reference value :  2.64001e-04
 Reference value :  2.64002e-04
 Reference value :  2.64003e-04
 Reference value :  2.64007e-04
 Reference value :  2.64010e-04
 Reference value :  2.64013e-04
 Reference value :  2.64018e-04
 Reference value :  2.64079e-04
 Reference value :  2.64250e-04
 Reference value :  2.64250e-04
 Reference value :  2.64251e-04
 Reference value :  2.64252e-04
 Reference value :  2.64254e-04
 Reference value :  2.64256e-04
 Reference value :  2.64282e-04
 Reference value :  2.64500e-04
 Reference value :  2.64500e-04
 Reference value :  2.64501e-04
 Reference value :  2.64502e-04
 Reference value :  2.64504e-04
 Reference value :  2.64506e-04
 Reference value :  2.64508e-04
 Reference value :  2.64512e-04
 Reference value :  2.64515e-04
 Reference value :  2.64521e-04
 Reference value :  2.64530e-04
 Reference value :  2.64536e-04
 Reference value :  2.64545e-04
 Reference value :  2.64575e-04
 Reference value :  2.64646e-04
 Reference value :  2.64750e-04
 Reference value :  2.64750e-04
 Reference value :  2.64751e-04
 Reference value :  2.64751e-04
 Reference value :  2.64753e-04
 Reference value :  2.64755e-04
 Reference value :  2.64757e-04
 Reference value :  2.64772e-04
 Reference value :  2.64979e-04
 Reference value :  2.65000e-04
 Reference value :  2.65000e-04
 Reference value :  2.65001e-04
 Reference value :  2.65002e-04
 Reference value :  2.65003e-04
 Reference value :  2.65005e-04
 Reference value :  2.65006e-04
 Reference value :  2.65007e-04
 Reference value :  2.65010e-04
 Reference value :  2.65017e-04
 Reference value :  2.65047e-04
 Reference value :  2.65250e-04
 Reference value :  2.65250e-04
 Reference value :  2.65250e-04
 Reference value :  2.65250e-04
 Reference value :  2.65251e-04
 Reference value :  2.65252e-04
 Reference value :  2.65253e-04
 Reference value :  2.65253e-04
 Reference value :  2.65254e-04
 Reference value :  2.65256e-04
 Reference value :  2.65258e-04
 Reference value :  2.65260e-04
 Reference value :  2.65267e-04
 Reference value :  2.65320e-04
 Reference value :  2.65500e-04
 Reference value :  2.65500e-04
 Reference value :  2.65500e-04
 Reference value :  2.65500e-04
 Reference value :  2.65500e-04
 Reference value :  2.65501e-04
 Reference value :  2.65501e-04
 Reference value :  2.65502e-04
 Reference value :  2.65502e-04
 Reference value :  2.65503e-04
 Reference value :  2.65504e-04
 Reference value :  2.65505e-04
 Reference value :  2.65508e-04
 Reference value :  2.65509e-04
 Reference value :  2.65510e-04
 Reference value :  2.65512e-04
 Reference value :  2.65514e-04
 Reference value :  2.65516e-04
 Reference value :  2.65521e-04
 Reference value :  2.65566e-04
 Reference value :  2.65716e-04
 Reference value :  2.65750e-04
 Reference value :  2.65750e-04
 Reference value :  2.65750e-04
 Reference value :  2.65751e-04
 Reference value :  2.65752e-04
 Reference value :  2.65753e-04
 Reference value :  2.65755e-04
 Reference value :  2.65759e-04
 Reference value :  2.65787e-04
 Reference value :  2.66000e-04
 Reference value :  2.66000e-04
 Reference value :  2.66000e-04
 Reference value :  2.66001e-04
 Reference value :  2.66002e-04
 Reference value :  2.66003e-04
 Reference value :  2.66005e-04
 Reference value :  2.66006e-04
 Reference value :  2.66007e-04
 Reference value :  2.66010e-04
 Reference value :  2.66022e-04
 Reference value :  2.66142e-04
 Reference value :  2.66250e-04
 Reference value :  2.66250e-04
 Reference value :  2.66250e-04
 Reference value :  2.66251e-04
 Reference value :  2.66252e-04
 Reference value :  2.66253e-04
 Reference value :  2.66255e-04
 Reference value :  2.66257e-04
 Reference value :  2.66261e-04
 Reference value :  2.66319e-04
 Reference value :  2.66500e-04
 Reference value :  2.66500e-04
 Reference value :  2.66500e-04
 Reference value :  2.66501e-04
 Reference value :  2.66502e-04
 Reference value :  2.66503e-04
 Reference value :  2.66504e-04
 Reference value :  2.66505e-04
 Reference value :  2.66507e-04
 Reference value :  2.66508e-04
 Reference value :  2.66510e-04
 Reference value :  2.66512e-04
 Reference value :  2.66514e-04
 Reference value :  2.66516e-04
 Reference value :  2.66525e-04
 Reference value :  2.66581e-04
 Reference value :  2.66719e-04
 Reference value :  2.66750e-04
 Reference value :  2.66750e-04
 Reference value :  2.66750e-04
 Reference value :  2.66751e-04
 Reference value :  2.66753e-04
 Reference value :  2.66754e-04
 Reference value :  2.66756e-04
 Reference value :  2.66773e-04
 Reference value :  2.66993e-04
 Reference value :  2.67000e-04
 Reference value :  2.67000e-04
 Reference value :  2.67001e-04
 Reference value :  2.67002e-04
 Reference value :  2.67003e-04
 Reference value :  2.67006e-04
 Reference value :  2.67007e-04
 Reference value :  2.67010e-04
 Reference value :  2.67022e-04
 Reference value :  2.67250e-04
 Reference value :  2.67250e-04
 Reference value :  2.67251e-04
 Reference value :  2.67251e-04
 Reference value :  2.67253e-04
 Reference value :  2.67254e-04
 Reference value :  2.67256e-04
 Reference value :  2.67257e-04
 Reference value :  2.67260e-04
 Reference value :  2.67267e-04
 Reference value :  2.67319e-04
 Reference value :  2.67500e-04
 Reference value :  2.67500e-04
 Reference value :  2.67500e-04
 Reference value :  2.67500e-04
 Reference value :  2.67500e-04
 Reference value :  2.67501e-04
 Reference value :  2.67502e-04
 Reference value :  2.67502e-04
 Reference value :  2.67503e-04
 Reference value :  2.67504e-04
 Reference value :  2.67505e-04
 Reference value :  2.67506e-04
 Reference value :  2.67508e-04
 Reference value :  2.67509e-04
 Reference value :  2.67510e-04
 Reference value :  2.67512e-04
 Reference value :  2.67514e-04
 Reference value :  2.67516e-04
 Reference value :  2.67521e-04
 Reference value :  2.67539e-04
 Reference value :  2.67586e-04
 Reference value :  2.67608e-04
 Reference value :  2.67698e-04
 Reference value :  2.67750e-04
 Reference value :  2.67750e-04
 Reference value :  2.67750e-04
 Reference value :  2.67751e-04
 Reference value :  2.67752e-04
 Reference value :  2.67753e-04
 Reference value :  2.67754e-04
 Reference value :  2.67756e-04
 Reference value :  2.67765e-04
 Reference value :  2.67875e-04
 Reference value :  2.68000e-04
 Reference value :  2.68000e-04
 Reference value :  2.68000e-04
 Reference value :  2.68001e-04
 Reference value :  2.68002e-04
 Reference value :  2.68002e-04
 Reference value :  2.68003e-04
 Reference value :  2.68004e-04
 Reference value :  2.68005e-04
 Reference value :  2.68006e-04
 Reference value :  2.68007e-04
 Reference value :  2.68009e-04
 Reference value :  2.68011e-04
 Reference value :  2.68022e-04
 Reference value :  2.68142e-04
 Reference value :  2.68250e-04
 Reference value :  2.68250e-04
 Reference value :  2.68250e-04
 Reference value :  2.68251e-04
 Reference value :  2.68251e-04
 Reference value :  2.68252e-04
 Reference value :  2.68253e-04
 Reference value :  2.68254e-04
 Reference value :  2.68256e-04
 Reference value :  2.68258e-04
 Reference value :  2.68264e-04
 Reference value :  2.68319e-04
 Reference value :  2.68500e-04
 Reference value :  2.68500e-04
 Reference value :  2.68500e-04
 Reference value :  2.68501e-04
 Reference value :  2.68502e-04
 Reference value :  2.68503e-04
 Reference value :  2.68504e-04
 Reference value :  2.68505e-04
 Reference value :  2.68507e-04
 Reference value :  2.68508e-04
 Reference value :  2.68510e-04
 Reference value :  2.68512e-04
 Reference value :  2.68514e-04
 Reference value :  2.68515e-04
 Reference value :  2.68517e-04
 Reference value :  2.68524e-04
 Reference value :  2.68561e-04
 Reference value :  2.68609e-04
 Reference value :  2.68654e-04
 Reference value :  2.68735e-04
 Reference value :  2.68750e-04
 Reference value :  2.68750e-04
 Reference value :  2.68750e-04
 Reference value :  2.68751e-04
 Reference value :  2.68753e-04
 Reference value :  2.68754e-04
 Reference value :  2.68756e-04
 Reference value :  2.68762e-04
 Reference value :  2.68817e-04
 Reference value :  2.69000e-04
 Reference value :  2.69000e-04
 Reference value :  2.69000e-04
 Reference value :  2.69001e-04
 Reference value :  2.69001e-04
 Reference value :  2.69002e-04
 Reference value :  2.69003e-04
 Reference value :  2.69004e-04
 Reference value :  2.69005e-04
 Reference value :  2.69006e-04
 Reference value :  2.69007e-04
 Reference value :  2.69009e-04
 Reference value :  2.69011e-04
 Reference value :  2.69032e-04
 Reference value :  2.69142e-04
 Reference value :  2.69250e-04
 Reference value :  2.69250e-04
 Reference value :  2.69250e-04
 Reference value :  2.69251e-04
 Reference value :  2.69251e-04
 Reference value :  2.69252e-04
 Reference value :  2.69253e-04
 Reference value :  2.69254e-04
 Reference value :  2.69256e-04
 Reference value :  2.69258e-04
 Reference value :  2.69264e-04
 Reference value :  2.69319e-04
 Reference value :  2.69500e-04
 Reference value :  2.69500e-04
 Reference value :  2.69500e-04
 Reference value :  2.69501e-04
 Reference value :  2.69502e-04
 Reference value :  2.69502e-04
 Reference value :  2.69504e-04
 Reference value :  2.69505e-04
 Reference value :  2.69508e-04
 Reference value :  2.69510e-04
 Reference value :  2.69513e-04
 Reference value :  2.69517e-04
 Reference value :  2.69520e-04
 Reference value :  2.69543e-04
 Reference value :  2.69600e-04
 Reference value :  2.69750e-04
 Reference value :  2.69750e-04
 Reference value :  2.69751e-04
 Reference value :  2.69752e-04
 Reference value :  2.69754e-04
 Reference value :  2.69756e-04
 Reference value :  2.69773e-04
 Reference value :  2.70000e-04
 Reference value :  2.70000e-04
 Reference value :  2.70001e-04
 Reference value :  2.70002e-04
 Reference value :  2.70003e-04
 Reference value :  2.70005e-04
 Reference value :  2.70006e-04
 Reference value :  2.70008e-04
 Reference value :  2.70010e-04
 Reference value :  2.70022e-04
 Reference value :  2.70142e-04
 Reference value :  2.70250e-04
 Reference value :  2.70250e-04
 Reference value :  2.70251e-04
 Reference value :  2.70252e-04
 Reference value :  2.70253e-04
 Reference value :  2.70254e-04
 Reference value :  2.70255e-04
 Reference value :  2.70257e-04
 Reference value :  2.70260e-04
 Reference value :  2.70275e-04
 Reference value :  2.70496e-04
 Reference value :  2.70500e-04
 Reference value :  2.70500e-04
 Reference value :  2.70501e-04
 Reference value :  2.70502e-04
 Reference value :  2.70502e-04
 Reference value :  2.70503e-04
 Reference value :  2.70504e-04
 Reference value :  2.70506e-04
 Reference value :  2.70509e-04
 Reference value :  2.70510e-04
 Reference value :  2.70512e-04
 Reference value :  2.70513e-04
 Reference value :  2.70516e-04
 Reference value :  2.70522e-04
 Reference value :  2.70559e-04
 Reference value :  2.70750e-04
 Reference value :  2.70750e-04
 Reference value :  2.70751e-04
 Reference value :  2.70753e-04
 Reference value :  2.70754e-04
 Reference value :  2.70757e-04
 Reference value :  2.70787e-04
 Reference value :  2.71000e-04
 Reference value :  2.71000e-04
 Reference value :  2.71000e-04
 Reference value :  2.71001e-04
 Reference value :  2.71001e-04
 Reference value :  2.71002e-04
 Reference value :  2.71002e-04
 Reference value :  2.71003e-04
 Reference value :  2.71004e-04
 Reference value :  2.71005e-04
 Reference value :  2.71006e-04
 Reference value :  2.71007e-04
 Reference value :  2.71010e-04
 Reference value :  2.71017e-04
 Reference value :  2.71047e-04
 Reference value :  2.71250e-04
 Reference value :  2.71250e-04
 Reference value :  2.71250e-04
 Reference value :  2.71251e-04
 Reference value :  2.71252e-04
 Reference value :  2.71253e-04
 Reference value :  2.71254e-04
 Reference value :  2.71256e-04
 Reference value :  2.71258e-04
 Reference value :  2.71261e-04
 Reference value :  2.71275e-04
 Reference value :  2.71377e-04
 Reference value :  2.71500e-04
 Reference value :  2.71500e-04
 Reference value :  2.71500e-04
 Reference value :  2.71500e-04
 Reference value :  2.71501e-04
 Reference value :  2.71502e-04
 Reference value :  2.71502e-04
 Reference value :  2.71503e-04
 Reference value :  2.71504e-04
 Reference value :  2.71505e-04
 Reference value :  2.71507e-04
 Reference value :  2.71508e-04
 Reference value :  2.71510e-04
 Reference value :  2.71514e-04
 Reference value :  2.71519e-04
 Reference value :  2.71551e-04
 Reference value :  2.71634e-04
 Reference value :  2.71723e-04
 Reference value :  2.71750e-04
 Reference value :  2.71750e-04
 Reference value :  2.71750e-04
 Reference value :  2.71750e-04
 Reference value :  2.71751e-04
 Reference value :  2.71752e-04
 Reference value :  2.71755e-04
 Reference value :  2.71775e-04
No. of Data Rows : 39557
ngspice-44 done
