
Note: Compatibility modes selected: hs a


Circuit: ** sch_path: /home/ece/cace/sar-adc-using-sky130-pdk/runs/run_2025-09-13_00-46-00/parameters/dnl/run_2/sar_output_dnl.sch

option SCALE: Scale is set to 1e-06 for instance and model parameters
option SCALE: Scale is set to 1e-06 for instance and model parameters
option SCALE: Scale is set to 1e-06 for instance and model parameters
option SCALE: Scale is set to 1e-06 for instance and model parameters
Doing analysis at TEMP = 27.000000 and TNOM = 27.000000

Using KLU as Direct Linear Solver
Operating point simulation skipped by 'uic',
  now using transient initial conditions.
 Reference value :  1.00000e-12
 Reference value :  1.19600e-12
 Reference value :  4.43482e-12
 Reference value :  2.06975e-11
 Reference value :  1.00000e-10
 Reference value :  1.38399e-10
 Reference value :  4.45593e-10
 Reference value :  1.35674e-09
 Reference value :  2.50491e-09
 Reference value :  4.07732e-09
 Reference value :  6.10015e-09
 Reference value :  7.51690e-09
 Reference value :  9.22974e-09
 Reference value :  1.14696e-08
 Reference value :  1.30735e-08
 Reference value :  1.63493e-08
 Reference value :  2.48321e-08
 Reference value :  3.55494e-08
 Reference value :  7.71386e-08
 Reference value :  2.22875e-07
 Reference value :  2.50110e-07
 Reference value :  2.50200e-07
 Reference value :  2.50254e-07
 Reference value :  2.50528e-07
 Reference value :  2.51671e-07
 Reference value :  2.53199e-07
 Reference value :  2.54739e-07
 Reference value :  2.58682e-07
 Reference value :  2.96021e-07
 Reference value :  5.00010e-07
 Reference value :  5.00108e-07
 Reference value :  5.00338e-07
 Reference value :  5.00827e-07
 Reference value :  5.01532e-07
 Reference value :  5.02818e-07
 Reference value :  5.05358e-07
 Reference value :  5.08785e-07
 Reference value :  5.12471e-07
 Reference value :  5.17377e-07
 Reference value :  5.33836e-07
 Reference value :  7.50100e-07
 Reference value :  7.50170e-07
 Reference value :  7.50256e-07
 Reference value :  7.50688e-07
 Reference value :  7.51860e-07
 Reference value :  7.53446e-07
 Reference value :  7.54484e-07
 Reference value :  7.55770e-07
 Reference value :  7.58281e-07
 Reference value :  7.63510e-07
 Reference value :  8.16500e-07
 Reference value :  1.00001e-06
 Reference value :  1.00010e-06
 Reference value :  1.00022e-06
 Reference value :  1.00083e-06
 Reference value :  1.00158e-06
 Reference value :  1.00290e-06
 Reference value :  1.00389e-06
 Reference value :  1.00484e-06
 Reference value :  1.00663e-06
 Reference value :  1.00849e-06
 Reference value :  1.01018e-06
 Reference value :  1.01192e-06
 Reference value :  1.01353e-06
 Reference value :  1.01624e-06
 Reference value :  1.01880e-06
 Reference value :  1.02912e-06
 Reference value :  1.08490e-06
 Reference value :  1.12671e-06
 Reference value :  1.16309e-06
 Reference value :  1.19069e-06
 Reference value :  1.20702e-06
 Reference value :  1.23935e-06
 Reference value :  1.25013e-06
 Reference value :  1.25021e-06
 Reference value :  1.25032e-06
 Reference value :  1.25069e-06
 Reference value :  1.25140e-06
 Reference value :  1.25186e-06
 Reference value :  1.25300e-06
 Reference value :  1.25346e-06
 Reference value :  1.25468e-06
 Reference value :  1.25609e-06
 Reference value :  1.25913e-06
 Reference value :  1.27381e-06
 Reference value :  1.38460e-06
 Reference value :  1.50003e-06
 Reference value :  1.50011e-06
 Reference value :  1.50022e-06
 Reference value :  1.50052e-06
 Reference value :  1.50083e-06
 Reference value :  1.50158e-06
 Reference value :  1.50242e-06
 Reference value :  1.50289e-06
 Reference value :  1.50399e-06
 Reference value :  1.50552e-06
 Reference value :  1.50616e-06
 Reference value :  1.50771e-06
 Reference value :  1.50956e-06
 Reference value :  1.51556e-06
 Reference value :  1.54823e-06
 Reference value :  1.75010e-06
 Reference value :  1.75017e-06
 Reference value :  1.75022e-06
 Reference value :  1.75032e-06
 Reference value :  1.75069e-06
 Reference value :  1.75140e-06
 Reference value :  1.75299e-06
 Reference value :  1.75397e-06
 Reference value :  1.75580e-06
 Reference value :  1.78260e-06
 Reference value :  2.00003e-06
 Reference value :  2.00016e-06
 Reference value :  2.00083e-06
 Reference value :  2.00201e-06
 Reference value :  2.00341e-06
 Reference value :  2.00500e-06
 Reference value :  2.00847e-06
 Reference value :  2.01120e-06
 Reference value :  2.01429e-06
 Reference value :  2.01626e-06
 Reference value :  2.02076e-06
 Reference value :  2.04565e-06
 Reference value :  2.05826e-06
 Reference value :  2.06866e-06
 Reference value :  2.08409e-06
 Reference value :  2.09723e-06
 Reference value :  2.13853e-06
 Reference value :  2.25017e-06
 Reference value :  2.25045e-06
 Reference value :  2.25140e-06
 Reference value :  2.25299e-06
 Reference value :  2.25455e-06
 Reference value :  2.25878e-06
 Reference value :  2.31358e-06
 Reference value :  2.50003e-06
 Reference value :  2.50011e-06
 Reference value :  2.50022e-06
 Reference value :  2.50083e-06
 Reference value :  2.50154e-06
 Reference value :  2.50282e-06
 Reference value :  2.50388e-06
 Reference value :  2.50536e-06
 Reference value :  2.50598e-06
 Reference value :  2.50749e-06
 Reference value :  2.50924e-06
 Reference value :  2.51029e-06
 Reference value :  2.51366e-06
 Reference value :  2.52245e-06
 Reference value :  2.58176e-06
 Reference value :  2.75010e-06
 Reference value :  2.75013e-06
 Reference value :  2.75020e-06
 Reference value :  2.75022e-06
 Reference value :  2.75032e-06
 Reference value :  2.75069e-06
 Reference value :  2.75140e-06
 Reference value :  2.75229e-06
 Reference value :  2.75344e-06
 Reference value :  2.75448e-06
 Reference value :  2.75580e-06
 Reference value :  2.75752e-06
 Reference value :  2.75965e-06
 Reference value :  2.76746e-06
 Reference value :  2.82044e-06
 Reference value :  3.00001e-06
 Reference value :  3.00010e-06
 Reference value :  3.00016e-06
 Reference value :  3.00034e-06
 Reference value :  3.00052e-06
 Reference value :  3.00119e-06
 Reference value :  3.00201e-06
 Reference value :  3.00290e-06
 Reference value :  3.00390e-06
 Reference value :  3.00484e-06
 Reference value :  3.00664e-06
 Reference value :  3.00841e-06
 Reference value :  3.01016e-06
 Reference value :  3.01192e-06
 Reference value :  3.01357e-06
 Reference value :  3.01535e-06
 Reference value :  3.01739e-06
 Reference value :  3.02434e-06
 Reference value :  3.05032e-06
 Reference value :  3.05948e-06
 Reference value :  3.06737e-06
 Reference value :  3.07072e-06
 Reference value :  3.07797e-06
 Reference value :  3.09100e-06
 Reference value :  3.10542e-06
 Reference value :  3.15304e-06
 Reference value :  3.25011e-06
 Reference value :  3.25017e-06
 Reference value :  3.25022e-06
 Reference value :  3.25069e-06
 Reference value :  3.25140e-06
 Reference value :  3.25299e-06
 Reference value :  3.25399e-06
 Reference value :  3.25598e-06
 Reference value :  3.27242e-06
 Reference value :  3.50000e-06
 Reference value :  3.50010e-06
 Reference value :  3.50022e-06
 Reference value :  3.50083e-06
 Reference value :  3.50158e-06
 Reference value :  3.50242e-06
 Reference value :  3.50342e-06
 Reference value :  3.50553e-06
 Reference value :  3.50689e-06
 Reference value :  3.50865e-06
 Reference value :  3.51251e-06
 Reference value :  3.54821e-06
 Reference value :  3.75011e-06
 Reference value :  3.75020e-06
 Reference value :  3.75045e-06
 Reference value :  3.75140e-06
 Reference value :  3.75299e-06
 Reference value :  3.75397e-06
 Reference value :  3.75502e-06
 Reference value :  3.75660e-06
 Reference value :  3.76984e-06
 Reference value :  4.00000e-06
 Reference value :  4.00010e-06
 Reference value :  4.00022e-06
 Reference value :  4.00119e-06
 Reference value :  4.00242e-06
 Reference value :  4.00341e-06
 Reference value :  4.00500e-06
 Reference value :  4.00709e-06
 Reference value :  4.01120e-06
 Reference value :  4.01323e-06
 Reference value :  4.01524e-06
 Reference value :  4.01912e-06
 Reference value :  4.03424e-06
 Reference value :  4.04709e-06
 Reference value :  4.05181e-06
 Reference value :  4.06138e-06
 Reference value :  4.07965e-06
 Reference value :  4.13376e-06
 Reference value :  4.25011e-06
 Reference value :  4.25021e-06
 Reference value :  4.25045e-06
 Reference value :  4.25140e-06
 Reference value :  4.25299e-06
 Reference value :  4.25394e-06
 Reference value :  4.25526e-06
 Reference value :  4.25878e-06
 Reference value :  4.27187e-06
 Reference value :  4.47988e-06
 Reference value :  4.50007e-06
 Reference value :  4.50012e-06
 Reference value :  4.50034e-06
 Reference value :  4.50083e-06
 Reference value :  4.50154e-06
 Reference value :  4.50235e-06
 Reference value :  4.50282e-06
 Reference value :  4.50388e-06
 Reference value :  4.50536e-06
 Reference value :  4.50598e-06
 Reference value :  4.50749e-06
 Reference value :  4.51028e-06
 Reference value :  4.52228e-06
 Reference value :  4.64494e-06
 Reference value :  4.75013e-06
 Reference value :  4.75021e-06
 Reference value :  4.75032e-06
 Reference value :  4.75098e-06
 Reference value :  4.75186e-06
 Reference value :  4.75299e-06
 Reference value :  4.75344e-06
 Reference value :  4.75448e-06
 Reference value :  4.75579e-06
 Reference value :  4.75836e-06
 Reference value :  4.76365e-06
 Reference value :  4.81987e-06
 Reference value :  5.00001e-06
 Reference value :  5.00011e-06
 Reference value :  5.00034e-06
 Reference value :  5.00119e-06
 Reference value :  5.00201e-06
 Reference value :  5.00290e-06
 Reference value :  5.00390e-06
 Reference value :  5.00534e-06
 Reference value :  5.00758e-06
 Reference value :  5.00928e-06
 Reference value :  5.01015e-06
 Reference value :  5.01190e-06
 Reference value :  5.01354e-06
 Reference value :  5.01630e-06
 Reference value :  5.02664e-06
 Reference value :  5.03716e-06
 Reference value :  5.04471e-06
 Reference value :  5.10759e-06
 Reference value :  5.25013e-06
 Reference value :  5.25032e-06
 Reference value :  5.25140e-06
 Reference value :  5.25299e-06
 Reference value :  5.25460e-06
 Reference value :  5.26161e-06
 Reference value :  5.37266e-06
 Reference value :  5.50007e-06
 Reference value :  5.50012e-06
 Reference value :  5.50034e-06
 Reference value :  5.50158e-06
 Reference value :  5.50242e-06
 Reference value :  5.50342e-06
 Reference value :  5.50552e-06
 Reference value :  5.50616e-06
 Reference value :  5.50771e-06
 Reference value :  5.51086e-06
 Reference value :  5.52968e-06
 Reference value :  5.75010e-06
 Reference value :  5.75017e-06
 Reference value :  5.75026e-06
 Reference value :  5.75098e-06
 Reference value :  5.75229e-06
 Reference value :  5.75344e-06
 Reference value :  5.75502e-06
 Reference value :  5.75822e-06
 Reference value :  5.80713e-06
 Reference value :  6.00003e-06
 Reference value :  6.00011e-06
 Reference value :  6.00022e-06
 Reference value :  6.00083e-06
 Reference value :  6.00158e-06
 Reference value :  6.00289e-06
 Reference value :  6.00450e-06
 Reference value :  6.00554e-06
 Reference value :  6.00997e-06
 Reference value :  6.01223e-06
 Reference value :  6.01428e-06
 Reference value :  6.01757e-06
 Reference value :  6.02425e-06
 Reference value :  6.04389e-06
 Reference value :  6.05776e-06
 Reference value :  6.07085e-06
 Reference value :  6.09818e-06
 Reference value :  6.18651e-06
 Reference value :  6.25013e-06
 Reference value :  6.25022e-06
 Reference value :  6.25069e-06
 Reference value :  6.25140e-06
 Reference value :  6.25229e-06
 Reference value :  6.25343e-06
 Reference value :  6.25455e-06
 Reference value :  6.25595e-06
 Reference value :  6.25878e-06
 Reference value :  6.27187e-06
 Reference value :  6.36890e-06
 Reference value :  6.50001e-06
 Reference value :  6.50007e-06
 Reference value :  6.50012e-06
 Reference value :  6.50022e-06
 Reference value :  6.50052e-06
 Reference value :  6.50119e-06
 Reference value :  6.50154e-06
 Reference value :  6.50235e-06
 Reference value :  6.50282e-06
 Reference value :  6.50388e-06
 Reference value :  6.50536e-06
 Reference value :  6.50598e-06
 Reference value :  6.50749e-06
 Reference value :  6.50924e-06
 Reference value :  6.51143e-06
 Reference value :  6.52219e-06
 Reference value :  6.57953e-06
 Reference value :  6.75011e-06
 Reference value :  6.75020e-06
 Reference value :  6.75022e-06
 Reference value :  6.75045e-06
 Reference value :  6.75139e-06
 Reference value :  6.75299e-06
 Reference value :  6.75397e-06
 Reference value :  6.75502e-06
 Reference value :  6.75661e-06
 Reference value :  6.75963e-06
 Reference value :  6.78976e-06
 Reference value :  7.00000e-06
 Reference value :  7.00007e-06
 Reference value :  7.00012e-06
 Reference value :  7.00034e-06
 Reference value :  7.00083e-06
 Reference value :  7.00158e-06
 Reference value :  7.00242e-06
 Reference value :  7.00342e-06
 Reference value :  7.00440e-06
 Reference value :  7.00484e-06
 Reference value :  7.00593e-06
 Reference value :  7.00758e-06
 Reference value :  7.00933e-06
 Reference value :  7.01016e-06
 Reference value :  7.01188e-06
 Reference value :  7.01427e-06
 Reference value :  7.01704e-06
 Reference value :  7.02274e-06
 Reference value :  7.06497e-06
 Reference value :  7.11629e-06
 Reference value :  7.13578e-06
 Reference value :  7.21462e-06
 Reference value :  7.25013e-06
 Reference value :  7.25021e-06
 Reference value :  7.25045e-06
 Reference value :  7.25140e-06
 Reference value :  7.25299e-06
 Reference value :  7.25398e-06
 Reference value :  7.25523e-06
 Reference value :  7.25887e-06
 Reference value :  7.28654e-06
 Reference value :  7.50000e-06
 Reference value :  7.50010e-06
 Reference value :  7.50022e-06
 Reference value :  7.50083e-06
 Reference value :  7.50201e-06
 Reference value :  7.50290e-06
 Reference value :  7.50399e-06
 Reference value :  7.50553e-06
 Reference value :  7.50616e-06
 Reference value :  7.50771e-06
 Reference value :  7.51248e-06
 Reference value :  7.54724e-06
 Reference value :  7.75011e-06
 Reference value :  7.75017e-06
 Reference value :  7.75022e-06
 Reference value :  7.75069e-06
 Reference value :  7.75186e-06
 Reference value :  7.75299e-06
 Reference value :  7.75344e-06
 Reference value :  7.75448e-06
 Reference value :  7.75579e-06
 Reference value :  7.76357e-06
 Reference value :  7.85673e-06
 Reference value :  8.00003e-06
 Reference value :  8.00011e-06
 Reference value :  8.00022e-06
 Reference value :  8.00083e-06
 Reference value :  8.00158e-06
 Reference value :  8.00289e-06
 Reference value :  8.00452e-06
 Reference value :  8.00558e-06
 Reference value :  8.00717e-06
 Reference value :  8.00885e-06
 Reference value :  8.01564e-06
 Reference value :  8.23275e-06
 Reference value :  8.25013e-06
 Reference value :  8.25022e-06
 Reference value :  8.25070e-06
 Reference value :  8.25186e-06
 Reference value :  8.25364e-06
 Reference value :  8.25623e-06
 Reference value :  8.26191e-06
 Reference value :  8.32167e-06
 Reference value :  8.50000e-06
 Reference value :  8.50000e-06
 Reference value :  8.50001e-06
 Reference value :  8.50010e-06
 Reference value :  8.50014e-06
 Reference value :  8.50044e-06
 Reference value :  8.50158e-06
 Reference value :  8.50243e-06
 Reference value :  8.50348e-06
 Reference value :  8.50446e-06
 Reference value :  8.50554e-06
 Reference value :  8.50743e-06
 Reference value :  8.51197e-06
 Reference value :  8.52238e-06
 Reference value :  8.52625e-06
 Reference value :  8.52914e-06
 Reference value :  8.53286e-06
 Reference value :  8.53725e-06
 Reference value :  8.54273e-06
 Reference value :  8.55207e-06
 Reference value :  8.57193e-06
 Reference value :  8.64490e-06
 Reference value :  8.75011e-06
 Reference value :  8.75022e-06
 Reference value :  8.75069e-06
 Reference value :  8.75185e-06
 Reference value :  8.75342e-06
 Reference value :  8.75456e-06
 Reference value :  8.75734e-06
 Reference value :  8.77178e-06
 Reference value :  8.84566e-06
 Reference value :  8.87930e-06
 Reference value :  8.91498e-06
 Reference value :  8.94127e-06
 Reference value :  9.00000e-06
 Reference value :  9.00007e-06
 Reference value :  9.00016e-06
 Reference value :  9.00052e-06
 Reference value :  9.00153e-06
 Reference value :  9.00280e-06
 Reference value :  9.00460e-06
 Reference value :  9.00642e-06
 Reference value :  9.00877e-06
 Reference value :  9.01120e-06
 Reference value :  9.01374e-06
 Reference value :  9.02047e-06
 Reference value :  9.04856e-06
 Reference value :  9.25011e-06
 Reference value :  9.25020e-06
 Reference value :  9.25032e-06
 Reference value :  9.25139e-06
 Reference value :  9.25298e-06
 Reference value :  9.25395e-06
 Reference value :  9.25500e-06
 Reference value :  9.25730e-06
 Reference value :  9.26664e-06
 Reference value :  9.43763e-06
 Reference value :  9.50007e-06
 Reference value :  9.50016e-06
 Reference value :  9.50083e-06
 Reference value :  9.50157e-06
 Reference value :  9.50289e-06
 Reference value :  9.50388e-06
 Reference value :  9.50482e-06
 Reference value :  9.50658e-06
 Reference value :  9.50749e-06
 Reference value :  9.50932e-06
 Reference value :  9.51024e-06
 Reference value :  9.51198e-06
 Reference value :  9.51357e-06
 Reference value :  9.51531e-06
 Reference value :  9.51726e-06
 Reference value :  9.52392e-06
 Reference value :  9.58982e-06
 Reference value :  9.63341e-06
 Reference value :  9.66955e-06
 Reference value :  9.69688e-06
 Reference value :  9.70977e-06
 Reference value :  9.74745e-06
 Reference value :  9.75017e-06
 Reference value :  9.75026e-06
 Reference value :  9.75069e-06
 Reference value :  9.75140e-06
 Reference value :  9.75229e-06
 Reference value :  9.75345e-06
 Reference value :  9.75460e-06
 Reference value :  9.75740e-06
 Reference value :  9.77233e-06
 Reference value :  9.87234e-06
 Reference value :  1.00000e-05
 Reference value :  1.00001e-05
 Reference value :  1.00001e-05
 Reference value :  1.00003e-05
 Reference value :  1.00012e-05
 Reference value :  1.00020e-05
 Reference value :  1.00034e-05
 Reference value :  1.00055e-05
 Reference value :  1.00069e-05
 Reference value :  1.00087e-05
 Reference value :  1.00125e-05
 Reference value :  1.00297e-05
 Reference value :  1.01544e-05
 Reference value :  1.02501e-05
 Reference value :  1.02502e-05
 Reference value :  1.02503e-05
 Reference value :  1.02507e-05
 Reference value :  1.02514e-05
 Reference value :  1.02530e-05
 Reference value :  1.02534e-05
 Reference value :  1.02545e-05
 Reference value :  1.02558e-05
 Reference value :  1.02603e-05
 Reference value :  1.02823e-05
 Reference value :  1.04572e-05
 Reference value :  1.05000e-05
 Reference value :  1.05001e-05
 Reference value :  1.05002e-05
 Reference value :  1.05008e-05
 Reference value :  1.05016e-05
 Reference value :  1.05029e-05
 Reference value :  1.05040e-05
 Reference value :  1.05050e-05
 Reference value :  1.05071e-05
 Reference value :  1.05100e-05
 Reference value :  1.05112e-05
 Reference value :  1.05132e-05
 Reference value :  1.05152e-05
 Reference value :  1.05191e-05
 Reference value :  1.05365e-05
 Reference value :  1.05460e-05
 Reference value :  1.05583e-05
 Reference value :  1.05697e-05
 Reference value :  1.05779e-05
 Reference value :  1.05922e-05
 Reference value :  1.06056e-05
 Reference value :  1.06427e-05
 Reference value :  1.07501e-05
 Reference value :  1.07502e-05
 Reference value :  1.07502e-05
 Reference value :  1.07504e-05
 Reference value :  1.07510e-05
 Reference value :  1.07514e-05
 Reference value :  1.07523e-05
 Reference value :  1.07534e-05
 Reference value :  1.07546e-05
 Reference value :  1.07559e-05
 Reference value :  1.07615e-05
 Reference value :  1.07857e-05
 Reference value :  1.09797e-05
 Reference value :  1.10000e-05
 Reference value :  1.10001e-05
 Reference value :  1.10002e-05
 Reference value :  1.10008e-05
 Reference value :  1.10015e-05
 Reference value :  1.10028e-05
 Reference value :  1.10039e-05
 Reference value :  1.10054e-05
 Reference value :  1.10060e-05
 Reference value :  1.10075e-05
 Reference value :  1.10092e-05
 Reference value :  1.10103e-05
 Reference value :  1.10167e-05
 Reference value :  1.10474e-05
 Reference value :  1.12501e-05
 Reference value :  1.12502e-05
 Reference value :  1.12502e-05
 Reference value :  1.12504e-05
 Reference value :  1.12510e-05
 Reference value :  1.12519e-05
 Reference value :  1.12530e-05
 Reference value :  1.12534e-05
 Reference value :  1.12545e-05
 Reference value :  1.12558e-05
 Reference value :  1.12575e-05
 Reference value :  1.12596e-05
 Reference value :  1.12749e-05
 Reference value :  1.15000e-05
 Reference value :  1.15000e-05
 Reference value :  1.15001e-05
 Reference value :  1.15001e-05
 Reference value :  1.15004e-05
 Reference value :  1.15014e-05
 Reference value :  1.15027e-05
 Reference value :  1.15036e-05
 Reference value :  1.15046e-05
 Reference value :  1.15056e-05
 Reference value :  1.15082e-05
 Reference value :  1.15090e-05
 Reference value :  1.15109e-05
 Reference value :  1.15129e-05
 Reference value :  1.15148e-05
 Reference value :  1.15168e-05
 Reference value :  1.15221e-05
 Reference value :  1.15443e-05
 Reference value :  1.15540e-05
 Reference value :  1.15636e-05
 Reference value :  1.15696e-05
 Reference value :  1.15827e-05
 Reference value :  1.16090e-05
 Reference value :  1.16712e-05
 Reference value :  1.17501e-05
 Reference value :  1.17502e-05
 Reference value :  1.17503e-05
 Reference value :  1.17507e-05
 Reference value :  1.17514e-05
 Reference value :  1.17523e-05
 Reference value :  1.17534e-05
 Reference value :  1.17546e-05
 Reference value :  1.17573e-05
 Reference value :  1.17649e-05
 Reference value :  1.18686e-05
 Reference value :  1.20000e-05
 Reference value :  1.20001e-05
 Reference value :  1.20002e-05
 Reference value :  1.20005e-05
 Reference value :  1.20008e-05
 Reference value :  1.20016e-05
 Reference value :  1.20024e-05
 Reference value :  1.20034e-05
 Reference value :  1.20047e-05
 Reference value :  1.20062e-05
 Reference value :  1.20077e-05
 Reference value :  1.20109e-05
 Reference value :  1.20296e-05
 Reference value :  1.20829e-05
 Reference value :  1.22501e-05
 Reference value :  1.22502e-05
 Reference value :  1.22504e-05
 Reference value :  1.22514e-05
 Reference value :  1.22523e-05
 Reference value :  1.22534e-05
 Reference value :  1.22545e-05
 Reference value :  1.22558e-05
 Reference value :  1.22635e-05
 Reference value :  1.23558e-05
 Reference value :  1.25000e-05
 Reference value :  1.25001e-05
 Reference value :  1.25001e-05
 Reference value :  1.25003e-05
 Reference value :  1.25008e-05
 Reference value :  1.25016e-05
 Reference value :  1.25029e-05
 Reference value :  1.25040e-05
 Reference value :  1.25050e-05
 Reference value :  1.25063e-05
 Reference value :  1.25085e-05
 Reference value :  1.25112e-05
 Reference value :  1.25122e-05
 Reference value :  1.25143e-05
 Reference value :  1.25152e-05
 Reference value :  1.25174e-05
 Reference value :  1.25240e-05
 Reference value :  1.25349e-05
 Reference value :  1.25484e-05
 Reference value :  1.25581e-05
 Reference value :  1.25687e-05
 Reference value :  1.25874e-05
 Reference value :  1.26732e-05
 Reference value :  1.27502e-05
 Reference value :  1.27503e-05
 Reference value :  1.27507e-05
 Reference value :  1.27514e-05
 Reference value :  1.27530e-05
 Reference value :  1.27539e-05
 Reference value :  1.27573e-05
 Reference value :  1.28134e-05
 Reference value :  1.30001e-05
 Reference value :  1.30002e-05
 Reference value :  1.30008e-05
 Reference value :  1.30015e-05
 Reference value :  1.30023e-05
 Reference value :  1.30033e-05
 Reference value :  1.30054e-05
 Reference value :  1.30066e-05
 Reference value :  1.30084e-05
 Reference value :  1.30103e-05
 Reference value :  1.30221e-05
 Reference value :  1.30474e-05
 Reference value :  1.32501e-05
 Reference value :  1.32502e-05
 Reference value :  1.32502e-05
 Reference value :  1.32504e-05
 Reference value :  1.32514e-05
 Reference value :  1.32523e-05
 Reference value :  1.32530e-05
 Reference value :  1.32534e-05
 Reference value :  1.32545e-05
 Reference value :  1.32558e-05
 Reference value :  1.32584e-05
 Reference value :  1.32610e-05
 Reference value :  1.32749e-05
 Reference value :  1.34996e-05
 Reference value :  1.35000e-05
 Reference value :  1.35001e-05
 Reference value :  1.35002e-05
 Reference value :  1.35008e-05
 Reference value :  1.35016e-05
 Reference value :  1.35024e-05
 Reference value :  1.35029e-05
 Reference value :  1.35039e-05
 Reference value :  1.35048e-05
 Reference value :  1.35066e-05
 Reference value :  1.35076e-05
 Reference value :  1.35093e-05
 Reference value :  1.35102e-05
 Reference value :  1.35119e-05
 Reference value :  1.35136e-05
 Reference value :  1.35154e-05
 Reference value :  1.35194e-05
 Reference value :  1.35244e-05
 Reference value :  1.35305e-05
 Reference value :  1.35370e-05
 Reference value :  1.35458e-05
 Reference value :  1.35696e-05
 Reference value :  1.36572e-05
 Reference value :  1.37501e-05
 Reference value :  1.37502e-05
 Reference value :  1.37502e-05
 Reference value :  1.37507e-05
 Reference value :  1.37514e-05
 Reference value :  1.37523e-05
 Reference value :  1.37534e-05
 Reference value :  1.37546e-05
 Reference value :  1.37574e-05
 Reference value :  1.37616e-05
 Reference value :  1.37723e-05
 Reference value :  1.38153e-05
 Reference value :  1.40000e-05
 Reference value :  1.40001e-05
 Reference value :  1.40003e-05
 Reference value :  1.40012e-05
 Reference value :  1.40016e-05
 Reference value :  1.40024e-05
 Reference value :  1.40029e-05
 Reference value :  1.40040e-05
 Reference value :  1.40055e-05
 Reference value :  1.40062e-05
 Reference value :  1.40077e-05
 Reference value :  1.40109e-05
 Reference value :  1.40205e-05
 Reference value :  1.40826e-05
 Reference value :  1.42501e-05
 Reference value :  1.42502e-05
 Reference value :  1.42502e-05
 Reference value :  1.42503e-05
 Reference value :  1.42507e-05
 Reference value :  1.42514e-05
 Reference value :  1.42523e-05
 Reference value :  1.42534e-05
 Reference value :  1.42545e-05
 Reference value :  1.42558e-05
 Reference value :  1.42603e-05
 Reference value :  1.42821e-05
 Reference value :  1.44556e-05
 Reference value :  1.45000e-05
 Reference value :  1.45001e-05
 Reference value :  1.45002e-05
 Reference value :  1.45003e-05
 Reference value :  1.45008e-05
 Reference value :  1.45016e-05
 Reference value :  1.45024e-05
 Reference value :  1.45029e-05
 Reference value :  1.45040e-05
 Reference value :  1.45050e-05
 Reference value :  1.45063e-05
 Reference value :  1.45085e-05
 Reference value :  1.45100e-05
 Reference value :  1.45112e-05
 Reference value :  1.45122e-05
 Reference value :  1.45143e-05
 Reference value :  1.45163e-05
 Reference value :  1.45193e-05
 Reference value :  1.45291e-05
 Reference value :  1.45435e-05
 Reference value :  1.45632e-05
 Reference value :  1.45704e-05
 Reference value :  1.45978e-05
 Reference value :  1.46436e-05
 Reference value :  1.47501e-05
 Reference value :  1.47502e-05
 Reference value :  1.47503e-05
 Reference value :  1.47510e-05
 Reference value :  1.47519e-05
 Reference value :  1.47534e-05
 Reference value :  1.47553e-05
 Reference value :  1.47588e-05
 Reference value :  1.47857e-05
 Reference value :  1.50000e-05
 Reference value :  1.50001e-05
 Reference value :  1.50002e-05
 Reference value :  1.50008e-05
 Reference value :  1.50015e-05
 Reference value :  1.50023e-05
 Reference value :  1.50028e-05
 Reference value :  1.50039e-05
 Reference value :  1.50054e-05
 Reference value :  1.50060e-05
 Reference value :  1.50075e-05
 Reference value :  1.50092e-05
 Reference value :  1.50114e-05
 Reference value :  1.50221e-05
 Reference value :  1.50791e-05
 Reference value :  1.52501e-05
 Reference value :  1.52502e-05
 Reference value :  1.52502e-05
 Reference value :  1.52503e-05
 Reference value :  1.52504e-05
 Reference value :  1.52510e-05
 Reference value :  1.52514e-05
 Reference value :  1.52523e-05
 Reference value :  1.52534e-05
 Reference value :  1.52545e-05
 Reference value :  1.52558e-05
 Reference value :  1.52575e-05
 Reference value :  1.52596e-05
 Reference value :  1.52636e-05
 Reference value :  1.52748e-05
 Reference value :  1.53196e-05
 Reference value :  1.54987e-05
 Reference value :  1.55000e-05
 Reference value :  1.55001e-05
 Reference value :  1.55003e-05
 Reference value :  1.55012e-05
 Reference value :  1.55020e-05
 Reference value :  1.55029e-05
 Reference value :  1.55039e-05
 Reference value :  1.55048e-05
 Reference value :  1.55066e-05
 Reference value :  1.55075e-05
 Reference value :  1.55093e-05
 Reference value :  1.55102e-05
 Reference value :  1.55119e-05
 Reference value :  1.55145e-05
 Reference value :  1.55165e-05
 Reference value :  1.55212e-05
 Reference value :  1.55401e-05
 Reference value :  1.55493e-05
 Reference value :  1.55613e-05
 Reference value :  1.55702e-05
 Reference value :  1.55902e-05
 Reference value :  1.56259e-05
 Reference value :  1.57501e-05
 Reference value :  1.57502e-05
 Reference value :  1.57502e-05
 Reference value :  1.57504e-05
 Reference value :  1.57514e-05
 Reference value :  1.57523e-05
 Reference value :  1.57535e-05
 Reference value :  1.57546e-05
 Reference value :  1.57589e-05
 Reference value :  1.57723e-05
 Reference value :  1.58725e-05
 Reference value :  1.60000e-05
 Reference value :  1.60001e-05
 Reference value :  1.60001e-05
 Reference value :  1.60003e-05
 Reference value :  1.60008e-05
 Reference value :  1.60016e-05
 Reference value :  1.60029e-05
 Reference value :  1.60047e-05
 Reference value :  1.60062e-05
 Reference value :  1.60077e-05
 Reference value :  1.60096e-05
 Reference value :  1.60125e-05
 Reference value :  1.60205e-05
 Reference value :  1.60471e-05
 Reference value :  1.61524e-05
 Reference value :  1.62501e-05
 Reference value :  1.62502e-05
 Reference value :  1.62502e-05
 Reference value :  1.62503e-05
 Reference value :  1.62507e-05
 Reference value :  1.62510e-05
 Reference value :  1.62514e-05
 Reference value :  1.62523e-05
 Reference value :  1.62530e-05
 Reference value :  1.62534e-05
 Reference value :  1.62540e-05
 Reference value :  1.62545e-05
 Reference value :  1.62558e-05
 Reference value :  1.62603e-05
 Reference value :  1.63070e-05
 Reference value :  1.65000e-05
 Reference value :  1.65001e-05
 Reference value :  1.65002e-05
 Reference value :  1.65005e-05
 Reference value :  1.65016e-05
 Reference value :  1.65024e-05
 Reference value :  1.65029e-05
 Reference value :  1.65045e-05
 Reference value :  1.65056e-05
 Reference value :  1.65072e-05
 Reference value :  1.65088e-05
 Reference value :  1.65226e-05
 Reference value :  1.67328e-05
 Reference value :  1.67501e-05
 Reference value :  1.67502e-05
 Reference value :  1.67507e-05
 Reference value :  1.67514e-05
 Reference value :  1.67530e-05
 Reference value :  1.67553e-05
 Reference value :  1.67592e-05
 Reference value :  1.67914e-05
 Reference value :  1.70000e-05
 Reference value :  1.70000e-05
 Reference value :  1.70000e-05
 Reference value :  1.70000e-05
 Reference value :  1.70001e-05
 Reference value :  1.70003e-05
 Reference value :  1.70012e-05
 Reference value :  1.70020e-05
 Reference value :  1.70029e-05
 Reference value :  1.70045e-05
 Reference value :  1.70062e-05
 Reference value :  1.70173e-05
 Reference value :  1.70224e-05
 Reference value :  1.70263e-05
 Reference value :  1.70292e-05
 Reference value :  1.70311e-05
 Reference value :  1.70343e-05
 Reference value :  1.70364e-05
 Reference value :  1.70403e-05
 Reference value :  1.70500e-05
 Reference value :  1.70638e-05
 Reference value :  1.71218e-05
 Reference value :  1.72501e-05
 Reference value :  1.72502e-05
 Reference value :  1.72504e-05
 Reference value :  1.72514e-05
 Reference value :  1.72530e-05
 Reference value :  1.72540e-05
 Reference value :  1.72559e-05
 Reference value :  1.72615e-05
 Reference value :  1.73128e-05
 Reference value :  1.73455e-05
 Reference value :  1.74001e-05
 Reference value :  1.74151e-05
 Reference value :  1.74545e-05
 Reference value :  1.75001e-05
 Reference value :  1.75002e-05
 Reference value :  1.75012e-05
 Reference value :  1.75023e-05
 Reference value :  1.75033e-05
 Reference value :  1.75046e-05
 Reference value :  1.75064e-05
 Reference value :  1.75088e-05
 Reference value :  1.75112e-05
 Reference value :  1.75124e-05
 Reference value :  1.75155e-05
 Reference value :  1.75256e-05
 Reference value :  1.75787e-05
 Reference value :  1.77501e-05
 Reference value :  1.77502e-05
 Reference value :  1.77502e-05
 Reference value :  1.77503e-05
 Reference value :  1.77507e-05
 Reference value :  1.77514e-05
 Reference value :  1.77523e-05
 Reference value :  1.77534e-05
 Reference value :  1.77545e-05
 Reference value :  1.77558e-05
 Reference value :  1.77573e-05
 Reference value :  1.77609e-05
 Reference value :  1.77729e-05
 Reference value :  1.79365e-05
 Reference value :  1.80011e-05
 Reference value :  1.80032e-05
 Reference value :  1.80043e-05
 Reference value :  1.80062e-05
 Reference value :  1.80082e-05
 Reference value :  1.80090e-05
 Reference value :  1.80108e-05
 Reference value :  1.80124e-05
 Reference value :  1.80138e-05
 Reference value :  1.80154e-05
 Reference value :  1.80172e-05
 Reference value :  1.80228e-05
 Reference value :  1.80688e-05
 Reference value :  1.81495e-05
 Reference value :  1.81876e-05
 Reference value :  1.82112e-05
 Reference value :  1.82501e-05
 Reference value :  1.82502e-05
 Reference value :  1.82504e-05
 Reference value :  1.82514e-05
 Reference value :  1.82529e-05
 Reference value :  1.82533e-05
 Reference value :  1.82544e-05
 Reference value :  1.82557e-05
 Reference value :  1.82602e-05
 Reference value :  1.83058e-05
 Reference value :  1.85000e-05
 Reference value :  1.85001e-05
 Reference value :  1.85002e-05
 Reference value :  1.85012e-05
 Reference value :  1.85024e-05
 Reference value :  1.85034e-05
 Reference value :  1.85055e-05
 Reference value :  1.85062e-05
 Reference value :  1.85077e-05
 Reference value :  1.85109e-05
 Reference value :  1.85295e-05
 Reference value :  1.86523e-05
 Reference value :  1.87501e-05
 Reference value :  1.87502e-05
 Reference value :  1.87504e-05
 Reference value :  1.87510e-05
 Reference value :  1.87519e-05
 Reference value :  1.87530e-05
 Reference value :  1.87540e-05
 Reference value :  1.87550e-05
 Reference value :  1.87566e-05
 Reference value :  1.87700e-05
 Reference value :  1.88586e-05
 Reference value :  1.90000e-05
 Reference value :  1.90000e-05
 Reference value :  1.90001e-05
 Reference value :  1.90002e-05
 Reference value :  1.90003e-05
 Reference value :  1.90008e-05
 Reference value :  1.90016e-05
 Reference value :  1.90024e-05
 Reference value :  1.90029e-05
 Reference value :  1.90040e-05
 Reference value :  1.90050e-05
 Reference value :  1.90071e-05
 Reference value :  1.90112e-05
 Reference value :  1.90132e-05
 Reference value :  1.90152e-05
 Reference value :  1.90208e-05
 Reference value :  1.90459e-05
 Reference value :  1.90578e-05
 Reference value :  1.90766e-05
 Reference value :  1.90902e-05
 Reference value :  1.91030e-05
 Reference value :  1.91380e-05
 Reference value :  1.92501e-05
 Reference value :  1.92502e-05
 Reference value :  1.92507e-05
 Reference value :  1.92519e-05
 Reference value :  1.92534e-05
 Reference value :  1.92559e-05
 Reference value :  1.92718e-05
 Reference value :  1.95000e-05
 Reference value :  1.95004e-05
 Reference value :  1.95014e-05
 Reference value :  1.95023e-05
 Reference value :  1.95028e-05
 Reference value :  1.95033e-05
 Reference value :  1.95047e-05
 Reference value :  1.95061e-05
 Reference value :  1.95076e-05
 Reference value :  1.95108e-05
 Reference value :  1.95436e-05
 Reference value :  1.97501e-05
 Reference value :  1.97502e-05
 Reference value :  1.97503e-05
 Reference value :  1.97507e-05
 Reference value :  1.97514e-05
 Reference value :  1.97530e-05
 Reference value :  1.97534e-05
 Reference value :  1.97545e-05
 Reference value :  1.97558e-05
 Reference value :  1.97575e-05
 Reference value :  1.97596e-05
 Reference value :  1.97748e-05
 Reference value :  1.99984e-05
 Reference value :  2.00000e-05
 Reference value :  2.00001e-05
 Reference value :  2.00002e-05
 Reference value :  2.00008e-05
 Reference value :  2.00016e-05
 Reference value :  2.00024e-05
 Reference value :  2.00034e-05
 Reference value :  2.00044e-05
 Reference value :  2.00048e-05
 Reference value :  2.00066e-05
 Reference value :  2.00084e-05
 Reference value :  2.00102e-05
 Reference value :  2.00119e-05
 Reference value :  2.00145e-05
 Reference value :  2.00165e-05
 Reference value :  2.00214e-05
 Reference value :  2.00430e-05
 Reference value :  2.00524e-05
 Reference value :  2.00616e-05
 Reference value :  2.00671e-05
 Reference value :  2.00809e-05
 Reference value :  2.00992e-05
 Reference value :  2.01174e-05
 Reference value :  2.01802e-05
 Reference value :  2.02501e-05
 Reference value :  2.02502e-05
 Reference value :  2.02503e-05
 Reference value :  2.02504e-05
 Reference value :  2.02514e-05
 Reference value :  2.02530e-05
 Reference value :  2.02540e-05
 Reference value :  2.02552e-05
 Reference value :  2.02589e-05
 Reference value :  2.02724e-05
 Reference value :  2.03727e-05
 Reference value :  2.05002e-05
 Reference value :  2.05009e-05
 Reference value :  2.05015e-05
 Reference value :  2.05023e-05
 Reference value :  2.05028e-05
 Reference value :  2.05039e-05
 Reference value :  2.05060e-05
 Reference value :  2.05083e-05
 Reference value :  2.05113e-05
 Reference value :  2.05541e-05
 Reference value :  2.07501e-05
 Reference value :  2.07503e-05
 Reference value :  2.07510e-05
 Reference value :  2.07523e-05
 Reference value :  2.07534e-05
 Reference value :  2.07545e-05
 Reference value :  2.07558e-05
 Reference value :  2.07635e-05
 Reference value :  2.09539e-05
 Reference value :  2.10000e-05
 Reference value :  2.10001e-05
 Reference value :  2.10002e-05
 Reference value :  2.10008e-05
 Reference value :  2.10016e-05
 Reference value :  2.10029e-05
 Reference value :  2.10040e-05
 Reference value :  2.10050e-05
 Reference value :  2.10063e-05
 Reference value :  2.10085e-05
 Reference value :  2.10112e-05
 Reference value :  2.10143e-05
 Reference value :  2.10174e-05
 Reference value :  2.10289e-05
 Reference value :  2.10499e-05
 Reference value :  2.10656e-05
 Reference value :  2.10919e-05
 Reference value :  2.12360e-05
 Reference value :  2.12502e-05
 Reference value :  2.12503e-05
 Reference value :  2.12507e-05
 Reference value :  2.12514e-05
 Reference value :  2.12530e-05
 Reference value :  2.12539e-05
 Reference value :  2.12559e-05
 Reference value :  2.12615e-05
 Reference value :  2.13134e-05
 Reference value :  2.15000e-05
 Reference value :  2.15000e-05
 Reference value :  2.15001e-05
 Reference value :  2.15002e-05
 Reference value :  2.15005e-05
 Reference value :  2.15012e-05
 Reference value :  2.15015e-05
 Reference value :  2.15023e-05
 Reference value :  2.15028e-05
 Reference value :  2.15039e-05
 Reference value :  2.15054e-05
 Reference value :  2.15066e-05
 Reference value :  2.15092e-05
 Reference value :  2.15167e-05
 Reference value :  2.15791e-05
 Reference value :  2.17501e-05
 Reference value :  2.17502e-05
 Reference value :  2.17503e-05
 Reference value :  2.17507e-05
 Reference value :  2.17514e-05
 Reference value :  2.17523e-05
 Reference value :  2.17530e-05
 Reference value :  2.17534e-05
 Reference value :  2.17545e-05
 Reference value :  2.17558e-05
 Reference value :  2.17575e-05
 Reference value :  2.17596e-05
 Reference value :  2.17749e-05
 Reference value :  2.19996e-05
 Reference value :  2.20000e-05
 Reference value :  2.20001e-05
 Reference value :  2.20001e-05
 Reference value :  2.20002e-05
 Reference value :  2.20005e-05
 Reference value :  2.20012e-05
 Reference value :  2.20016e-05
 Reference value :  2.20024e-05
 Reference value :  2.20029e-05
 Reference value :  2.20039e-05
 Reference value :  2.20049e-05
 Reference value :  2.20060e-05
 Reference value :  2.20067e-05
 Reference value :  2.20077e-05
 Reference value :  2.20085e-05
 Reference value :  2.20093e-05
 Reference value :  2.20101e-05
 Reference value :  2.20119e-05
 Reference value :  2.20136e-05
 Reference value :  2.20154e-05
 Reference value :  2.20175e-05
 Reference value :  2.20211e-05
 Reference value :  2.20277e-05
 Reference value :  2.20312e-05
 Reference value :  2.20362e-05
 Reference value :  2.20381e-05
 Reference value :  2.20486e-05
 Reference value :  2.20804e-05
 Reference value :  2.21772e-05
 Reference value :  2.22501e-05
 Reference value :  2.22501e-05
 Reference value :  2.22502e-05
 Reference value :  2.22502e-05
 Reference value :  2.22503e-05
 Reference value :  2.22507e-05
 Reference value :  2.22514e-05
 Reference value :  2.22523e-05
 Reference value :  2.22535e-05
 Reference value :  2.22546e-05
 Reference value :  2.22560e-05
 Reference value :  2.22616e-05
 Reference value :  2.22867e-05
 Reference value :  2.25000e-05
 Reference value :  2.25001e-05
 Reference value :  2.25001e-05
 Reference value :  2.25003e-05
 Reference value :  2.25008e-05
 Reference value :  2.25016e-05
 Reference value :  2.25024e-05
 Reference value :  2.25029e-05
 Reference value :  2.25040e-05
 Reference value :  2.25055e-05
 Reference value :  2.25062e-05
 Reference value :  2.25077e-05
 Reference value :  2.25109e-05
 Reference value :  2.25296e-05
 Reference value :  2.27501e-05
 Reference value :  2.27502e-05
 Reference value :  2.27502e-05
 Reference value :  2.27504e-05
 Reference value :  2.27510e-05
 Reference value :  2.27519e-05
 Reference value :  2.27530e-05
 Reference value :  2.27534e-05
 Reference value :  2.27545e-05
 Reference value :  2.27558e-05
 Reference value :  2.27602e-05
 Reference value :  2.27821e-05
 Reference value :  2.29552e-05
 Reference value :  2.30008e-05
 Reference value :  2.30023e-05
 Reference value :  2.30031e-05
 Reference value :  2.30038e-05
 Reference value :  2.30045e-05
 Reference value :  2.30051e-05
 Reference value :  2.30056e-05
 Reference value :  2.30070e-05
 Reference value :  2.30097e-05
 Reference value :  2.30109e-05
 Reference value :  2.30122e-05
 Reference value :  2.30131e-05
 Reference value :  2.30150e-05
 Reference value :  2.30172e-05
 Reference value :  2.30201e-05
 Reference value :  2.30348e-05
 Reference value :  2.30517e-05
 Reference value :  2.30761e-05
 Reference value :  2.30888e-05
 Reference value :  2.30976e-05
 Reference value :  2.31200e-05
 Reference value :  2.31624e-05
 Reference value :  2.31964e-05
 Reference value :  2.32501e-05
 Reference value :  2.32502e-05
 Reference value :  2.32503e-05
 Reference value :  2.32507e-05
 Reference value :  2.32514e-05
 Reference value :  2.32530e-05
 Reference value :  2.32539e-05
 Reference value :  2.32559e-05
 Reference value :  2.32648e-05
 Reference value :  2.33639e-05
 Reference value :  2.35000e-05
 Reference value :  2.35001e-05
 Reference value :  2.35002e-05
 Reference value :  2.35008e-05
 Reference value :  2.35015e-05
 Reference value :  2.35023e-05
 Reference value :  2.35028e-05
 Reference value :  2.35039e-05
 Reference value :  2.35060e-05
 Reference value :  2.35075e-05
 Reference value :  2.35103e-05
 Reference value :  2.35222e-05
 Reference value :  2.36435e-05
 Reference value :  2.37501e-05
 Reference value :  2.37502e-05
 Reference value :  2.37507e-05
 Reference value :  2.37514e-05
 Reference value :  2.37530e-05
 Reference value :  2.37540e-05
 Reference value :  2.37550e-05
 Reference value :  2.37566e-05
 Reference value :  2.37596e-05
 Reference value :  2.37743e-05
 Reference value :  2.39890e-05
 Reference value :  2.40000e-05
 Reference value :  2.40001e-05
 Reference value :  2.40001e-05
 Reference value :  2.40003e-05
 Reference value :  2.40008e-05
 Reference value :  2.40016e-05
 Reference value :  2.40024e-05
 Reference value :  2.40029e-05
 Reference value :  2.40039e-05
 Reference value :  2.40048e-05
 Reference value :  2.40059e-05
 Reference value :  2.40076e-05
 Reference value :  2.40102e-05
 Reference value :  2.40119e-05
 Reference value :  2.40153e-05
 Reference value :  2.40189e-05
 Reference value :  2.40286e-05
 Reference value :  2.40373e-05
 Reference value :  2.40605e-05
 Reference value :  2.42020e-05
 Reference value :  2.42502e-05
 Reference value :  2.42503e-05
 Reference value :  2.42507e-05
 Reference value :  2.42514e-05
 Reference value :  2.42523e-05
 Reference value :  2.42534e-05
 Reference value :  2.42546e-05
 Reference value :  2.42560e-05
 Reference value :  2.42589e-05
 Reference value :  2.42652e-05
 Reference value :  2.43152e-05
 Reference value :  2.44866e-05
 Reference value :  2.45000e-05
 Reference value :  2.45001e-05
 Reference value :  2.45001e-05
 Reference value :  2.45002e-05
 Reference value :  2.45003e-05
 Reference value :  2.45008e-05
 Reference value :  2.45016e-05
 Reference value :  2.45024e-05
 Reference value :  2.45034e-05
 Reference value :  2.45055e-05
 Reference value :  2.45069e-05
 Reference value :  2.45096e-05
 Reference value :  2.45296e-05
 Reference value :  2.47501e-05
 Reference value :  2.47502e-05
 Reference value :  2.47504e-05
 Reference value :  2.47514e-05
 Reference value :  2.47534e-05
 Reference value :  2.47558e-05
 Reference value :  2.47697e-05
 Reference value :  2.48563e-05
 Reference value :  2.50001e-05
 Reference value :  2.50002e-05
 Reference value :  2.50012e-05
 Reference value :  2.50024e-05
 Reference value :  2.50034e-05
 Reference value :  2.50050e-05
 Reference value :  2.50064e-05
 Reference value :  2.50088e-05
 Reference value :  2.50226e-05
 Reference value :  2.52328e-05
 Reference value :  2.52501e-05
 Reference value :  2.52502e-05
 Reference value :  2.52504e-05
 Reference value :  2.52514e-05
 Reference value :  2.52530e-05
 Reference value :  2.52553e-05
 Reference value :  2.52577e-05
 Reference value :  2.52749e-05
 Reference value :  2.55000e-05
 Reference value :  2.55000e-05
 Reference value :  2.55000e-05
 Reference value :  2.55000e-05
 Reference value :  2.55001e-05
 Reference value :  2.55001e-05
 Reference value :  2.55003e-05
 Reference value :  2.55007e-05
 Reference value :  2.55016e-05
 Reference value :  2.55020e-05
 Reference value :  2.55029e-05
 Reference value :  2.55040e-05
 Reference value :  2.55045e-05
 Reference value :  2.55055e-05
 Reference value :  2.55120e-05
 Reference value :  2.55224e-05
 Reference value :  2.55263e-05
 Reference value :  2.55292e-05
 Reference value :  2.55315e-05
 Reference value :  2.55354e-05
 Reference value :  2.55385e-05
 Reference value :  2.55423e-05
 Reference value :  2.55509e-05
 Reference value :  2.55808e-05
 Reference value :  2.56408e-05
 Reference value :  2.57501e-05
 Reference value :  2.57502e-05
 Reference value :  2.57502e-05
 Reference value :  2.57504e-05
 Reference value :  2.57510e-05
 Reference value :  2.57519e-05
 Reference value :  2.57530e-05
 Reference value :  2.57540e-05
 Reference value :  2.57552e-05
 Reference value :  2.57573e-05
 Reference value :  2.57615e-05
 Reference value :  2.57854e-05
 Reference value :  2.58454e-05
 Reference value :  2.58788e-05
 Reference value :  2.59002e-05
 Reference value :  2.59154e-05
 Reference value :  2.59421e-05
 Reference value :  2.59849e-05
 Reference value :  2.60000e-05
 Reference value :  2.60001e-05
 Reference value :  2.60002e-05
 Reference value :  2.60003e-05
 Reference value :  2.60008e-05
 Reference value :  2.60015e-05
 Reference value :  2.60023e-05
 Reference value :  2.60028e-05
 Reference value :  2.60039e-05
 Reference value :  2.60064e-05
 Reference value :  2.60088e-05
 Reference value :  2.60112e-05
 Reference value :  2.60124e-05
 Reference value :  2.60155e-05
 Reference value :  2.60256e-05
 Reference value :  2.60787e-05
 Reference value :  2.62501e-05
 Reference value :  2.62502e-05
 Reference value :  2.62502e-05
 Reference value :  2.62503e-05
 Reference value :  2.62507e-05
 Reference value :  2.62514e-05
 Reference value :  2.62523e-05
 Reference value :  2.62534e-05
 Reference value :  2.62545e-05
 Reference value :  2.62558e-05
 Reference value :  2.62573e-05
 Reference value :  2.62609e-05
 Reference value :  2.62730e-05
 Reference value :  2.63496e-05
 Reference value :  2.65011e-05
 Reference value :  2.65043e-05
 Reference value :  2.65062e-05
 Reference value :  2.65082e-05
 Reference value :  2.65090e-05
 Reference value :  2.65108e-05
 Reference value :  2.65124e-05
 Reference value :  2.65138e-05
 Reference value :  2.65155e-05
 Reference value :  2.65173e-05
 Reference value :  2.65202e-05
 Reference value :  2.65482e-05
 Reference value :  2.66550e-05
 Reference value :  2.66892e-05
 Reference value :  2.67125e-05
 Reference value :  2.67501e-05
 Reference value :  2.67502e-05
 Reference value :  2.67503e-05
 Reference value :  2.67510e-05
 Reference value :  2.67514e-05
 Reference value :  2.67523e-05
 Reference value :  2.67533e-05
 Reference value :  2.67544e-05
 Reference value :  2.67567e-05
 Reference value :  2.67694e-05
 Reference value :  2.69519e-05
 Reference value :  2.70000e-05
 Reference value :  2.70001e-05
 Reference value :  2.70002e-05
 Reference value :  2.70003e-05
 Reference value :  2.70008e-05
 Reference value :  2.70016e-05
 Reference value :  2.70024e-05
 Reference value :  2.70029e-05
 Reference value :  2.70040e-05
 Reference value :  2.70055e-05
 Reference value :  2.70062e-05
 Reference value :  2.70077e-05
 Reference value :  2.70109e-05
 Reference value :  2.70294e-05
 Reference value :  2.72501e-05
 Reference value :  2.72502e-05
 Reference value :  2.72502e-05
 Reference value :  2.72504e-05
 Reference value :  2.72510e-05
 Reference value :  2.72514e-05
 Reference value :  2.72523e-05
 Reference value :  2.72534e-05
 Reference value :  2.72545e-05
 Reference value :  2.72558e-05
 Reference value :  2.72603e-05
 Reference value :  2.73079e-05
 Reference value :  2.75000e-05
 Reference value :  2.75001e-05
 Reference value :  2.75002e-05
 Reference value :  2.75005e-05
 Reference value :  2.75012e-05
 Reference value :  2.75020e-05
 Reference value :  2.75029e-05
 Reference value :  2.75040e-05
 Reference value :  2.75050e-05
 Reference value :  2.75063e-05
 Reference value :  2.75085e-05
 Reference value :  2.75112e-05
 Reference value :  2.75132e-05
 Reference value :  2.75152e-05
 Reference value :  2.75192e-05
 Reference value :  2.75365e-05
 Reference value :  2.75471e-05
 Reference value :  2.75597e-05
 Reference value :  2.75799e-05
 Reference value :  2.75946e-05
 Reference value :  2.76157e-05
 Reference value :  2.77183e-05
 Reference value :  2.77501e-05
 Reference value :  2.77502e-05
 Reference value :  2.77503e-05
 Reference value :  2.77510e-05
 Reference value :  2.77519e-05
 Reference value :  2.77530e-05
 Reference value :  2.77539e-05
 Reference value :  2.77559e-05
 Reference value :  2.77649e-05
 Reference value :  2.78133e-05
 Reference value :  2.80004e-05
 Reference value :  2.80015e-05
 Reference value :  2.80028e-05
 Reference value :  2.80048e-05
 Reference value :  2.80062e-05
 Reference value :  2.80077e-05
 Reference value :  2.80096e-05
 Reference value :  2.80165e-05
 Reference value :  2.80540e-05
 Reference value :  2.82501e-05
 Reference value :  2.82501e-05
 Reference value :  2.82502e-05
 Reference value :  2.82503e-05
 Reference value :  2.82504e-05
 Reference value :  2.82510e-05
 Reference value :  2.82514e-05
 Reference value :  2.82523e-05
 Reference value :  2.82534e-05
 Reference value :  2.82545e-05
 Reference value :  2.82558e-05
 Reference value :  2.82575e-05
 Reference value :  2.82596e-05
 Reference value :  2.82673e-05
 Reference value :  2.83192e-05
 Reference value :  2.84971e-05
 Reference value :  2.85000e-05
 Reference value :  2.85001e-05
 Reference value :  2.85002e-05
 Reference value :  2.85008e-05
 Reference value :  2.85016e-05
 Reference value :  2.85024e-05
 Reference value :  2.85029e-05
 Reference value :  2.85039e-05
 Reference value :  2.85048e-05
 Reference value :  2.85066e-05
 Reference value :  2.85076e-05
 Reference value :  2.85084e-05
 Reference value :  2.85102e-05
 Reference value :  2.85119e-05
 Reference value :  2.85136e-05
 Reference value :  2.85155e-05
 Reference value :  2.85177e-05
 Reference value :  2.85254e-05
 Reference value :  2.85521e-05
 Reference value :  2.85613e-05
 Reference value :  2.85672e-05
 Reference value :  2.85793e-05
 Reference value :  2.85876e-05
 Reference value :  2.86051e-05
 Reference value :  2.86442e-05
 Reference value :  2.87501e-05
 Reference value :  2.87502e-05
 Reference value :  2.87503e-05
 Reference value :  2.87504e-05
 Reference value :  2.87510e-05
 Reference value :  2.87514e-05
 Reference value :  2.87523e-05
 Reference value :  2.87535e-05
 Reference value :  2.87546e-05
 Reference value :  2.87560e-05
 Reference value :  2.87589e-05
 Reference value :  2.87724e-05
 Reference value :  2.88727e-05
 Reference value :  2.90000e-05
 Reference value :  2.90002e-05
 Reference value :  2.90009e-05
 Reference value :  2.90015e-05
 Reference value :  2.90019e-05
 Reference value :  2.90028e-05
 Reference value :  2.90033e-05
 Reference value :  2.90046e-05
 Reference value :  2.90060e-05
 Reference value :  2.90074e-05
 Reference value :  2.90092e-05
 Reference value :  2.90102e-05
 Reference value :  2.90165e-05
 Reference value :  2.90543e-05
 Reference value :  2.92501e-05
 Reference value :  2.92501e-05
 Reference value :  2.92502e-05
 Reference value :  2.92502e-05
 Reference value :  2.92504e-05
 Reference value :  2.92510e-05
 Reference value :  2.92514e-05
 Reference value :  2.92523e-05
 Reference value :  2.92530e-05
 Reference value :  2.92534e-05
 Reference value :  2.92545e-05
 Reference value :  2.92558e-05
 Reference value :  2.92582e-05
 Reference value :  2.92696e-05
 Reference value :  2.93555e-05
 Reference value :  2.95000e-05
 Reference value :  2.95001e-05
 Reference value :  2.95001e-05
 Reference value :  2.95002e-05
 Reference value :  2.95005e-05
 Reference value :  2.95012e-05
 Reference value :  2.95016e-05
 Reference value :  2.95024e-05
 Reference value :  2.95029e-05
 Reference value :  2.95040e-05
 Reference value :  2.95050e-05
 Reference value :  2.95063e-05
 Reference value :  2.95085e-05
 Reference value :  2.95112e-05
 Reference value :  2.95122e-05
 Reference value :  2.95143e-05
 Reference value :  2.95152e-05
 Reference value :  2.95174e-05
 Reference value :  2.95240e-05
 Reference value :  2.95365e-05
 Reference value :  2.95515e-05
 Reference value :  2.95618e-05
 Reference value :  2.95674e-05
 Reference value :  2.95859e-05
 Reference value :  2.96229e-05
 Reference value :  2.97418e-05
 Reference value :  2.97501e-05
 Reference value :  2.97502e-05
 Reference value :  2.97502e-05
 Reference value :  2.97503e-05
 Reference value :  2.97507e-05
 Reference value :  2.97514e-05
 Reference value :  2.97523e-05
 Reference value :  2.97534e-05
 Reference value :  2.97553e-05
 Reference value :  2.97588e-05
 Reference value :  2.97719e-05
 Reference value :  2.99796e-05
 Reference value :  3.00000e-05
 Reference value :  3.00001e-05
 Reference value :  3.00001e-05
 Reference value :  3.00002e-05
 Reference value :  3.00003e-05
 Reference value :  3.00008e-05
 Reference value :  3.00015e-05
 Reference value :  3.00023e-05
 Reference value :  3.00033e-05
 Reference value :  3.00054e-05
 Reference value :  3.00066e-05
 Reference value :  3.00084e-05
 Reference value :  3.00103e-05
 Reference value :  3.00221e-05
 Reference value :  3.01426e-05
 Reference value :  3.02501e-05
 Reference value :  3.02502e-05
 Reference value :  3.02504e-05
 Reference value :  3.02510e-05
 Reference value :  3.02514e-05
 Reference value :  3.02523e-05
 Reference value :  3.02534e-05
 Reference value :  3.02545e-05
 Reference value :  3.02558e-05
 Reference value :  3.02575e-05
 Reference value :  3.02596e-05
 Reference value :  3.02674e-05
 Reference value :  3.03198e-05
 Reference value :  3.05000e-05
 Reference value :  3.05000e-05
 Reference value :  3.05001e-05
 Reference value :  3.05001e-05
 Reference value :  3.05002e-05
 Reference value :  3.05003e-05
 Reference value :  3.05008e-05
 Reference value :  3.05016e-05
 Reference value :  3.05029e-05
 Reference value :  3.05039e-05
 Reference value :  3.05049e-05
 Reference value :  3.05067e-05
 Reference value :  3.05084e-05
 Reference value :  3.05101e-05
 Reference value :  3.05119e-05
 Reference value :  3.05136e-05
 Reference value :  3.05154e-05
 Reference value :  3.05194e-05
 Reference value :  3.05283e-05
 Reference value :  3.05318e-05
 Reference value :  3.05369e-05
 Reference value :  3.05422e-05
 Reference value :  3.05599e-05
 Reference value :  3.06103e-05
 Reference value :  3.07501e-05
 Reference value :  3.07502e-05
 Reference value :  3.07502e-05
 Reference value :  3.07504e-05
 Reference value :  3.07510e-05
 Reference value :  3.07514e-05
 Reference value :  3.07523e-05
 Reference value :  3.07530e-05
 Reference value :  3.07534e-05
 Reference value :  3.07546e-05
 Reference value :  3.07560e-05
 Reference value :  3.07616e-05
 Reference value :  3.07867e-05
 Reference value :  3.09870e-05
 Reference value :  3.10000e-05
 Reference value :  3.10001e-05
 Reference value :  3.10002e-05
 Reference value :  3.10005e-05
 Reference value :  3.10012e-05
 Reference value :  3.10016e-05
 Reference value :  3.10024e-05
 Reference value :  3.10034e-05
 Reference value :  3.10062e-05
 Reference value :  3.10077e-05
 Reference value :  3.10125e-05
 Reference value :  3.10824e-05
 Reference value :  3.12501e-05
 Reference value :  3.12502e-05
 Reference value :  3.12503e-05
 Reference value :  3.12507e-05
 Reference value :  3.12514e-05
 Reference value :  3.12530e-05
 Reference value :  3.12534e-05
 Reference value :  3.12545e-05
 Reference value :  3.12558e-05
 Reference value :  3.12602e-05
 Reference value :  3.13068e-05
 Reference value :  3.15000e-05
 Reference value :  3.15001e-05
 Reference value :  3.15001e-05
 Reference value :  3.15003e-05
 Reference value :  3.15008e-05
 Reference value :  3.15016e-05
 Reference value :  3.15024e-05
 Reference value :  3.15029e-05
 Reference value :  3.15034e-05
 Reference value :  3.15045e-05
 Reference value :  3.15050e-05
 Reference value :  3.15063e-05
 Reference value :  3.15085e-05
 Reference value :  3.15112e-05
 Reference value :  3.15122e-05
 Reference value :  3.15143e-05
 Reference value :  3.15163e-05
 Reference value :  3.15193e-05
 Reference value :  3.15243e-05
 Reference value :  3.15369e-05
 Reference value :  3.15571e-05
 Reference value :  3.15919e-05
 Reference value :  3.16427e-05
 Reference value :  3.16976e-05
 Reference value :  3.17501e-05
 Reference value :  3.17502e-05
 Reference value :  3.17502e-05
 Reference value :  3.17504e-05
 Reference value :  3.17514e-05
 Reference value :  3.17530e-05
 Reference value :  3.17539e-05
 Reference value :  3.17560e-05
 Reference value :  3.17650e-05
 Reference value :  3.19804e-05
 Reference value :  3.20001e-05
 Reference value :  3.20002e-05
 Reference value :  3.20008e-05
 Reference value :  3.20019e-05
 Reference value :  3.20028e-05
 Reference value :  3.20046e-05
 Reference value :  3.20060e-05
 Reference value :  3.20084e-05
 Reference value :  3.20103e-05
 Reference value :  3.20166e-05
 Reference value :  3.20471e-05
 Reference value :  3.22501e-05
 Reference value :  3.22502e-05
 Reference value :  3.22503e-05
 Reference value :  3.22507e-05
 Reference value :  3.22514e-05
 Reference value :  3.22530e-05
 Reference value :  3.22534e-05
 Reference value :  3.22545e-05
 Reference value :  3.22558e-05
 Reference value :  3.22583e-05
 Reference value :  3.22636e-05
 Reference value :  3.23191e-05
 Reference value :  3.25000e-05
 Reference value :  3.25001e-05
 Reference value :  3.25001e-05
 Reference value :  3.25002e-05
 Reference value :  3.25005e-05
 Reference value :  3.25012e-05
 Reference value :  3.25020e-05
 Reference value :  3.25029e-05
 Reference value :  3.25039e-05
 Reference value :  3.25049e-05
 Reference value :  3.25067e-05
 Reference value :  3.25084e-05
 Reference value :  3.25101e-05
 Reference value :  3.25119e-05
 Reference value :  3.25144e-05
 Reference value :  3.25174e-05
 Reference value :  3.25184e-05
 Reference value :  3.25211e-05
 Reference value :  3.25303e-05
 Reference value :  3.25499e-05
 Reference value :  3.27501e-05
 Reference value :  3.27502e-05
 Reference value :  3.27503e-05
 Reference value :  3.27510e-05
 Reference value :  3.27519e-05
 Reference value :  3.27530e-05
 Reference value :  3.27540e-05
 Reference value :  3.27552e-05
 Reference value :  3.27616e-05
 Reference value :  3.28727e-05
 Reference value :  3.30000e-05
 Reference value :  3.30001e-05
 Reference value :  3.30002e-05
 Reference value :  3.30008e-05
 Reference value :  3.30016e-05
 Reference value :  3.30029e-05
 Reference value :  3.30047e-05
 Reference value :  3.30062e-05
 Reference value :  3.30087e-05
 Reference value :  3.30155e-05
 Reference value :  3.31529e-05
 Reference value :  3.32502e-05
 Reference value :  3.32503e-05
 Reference value :  3.32507e-05
 Reference value :  3.32514e-05
 Reference value :  3.32530e-05
 Reference value :  3.32545e-05
 Reference value :  3.32566e-05
 Reference value :  3.32821e-05
 Reference value :  3.35008e-05
 Reference value :  3.35023e-05
 Reference value :  3.35031e-05
 Reference value :  3.35045e-05
 Reference value :  3.35051e-05
 Reference value :  3.35057e-05
 Reference value :  3.35071e-05
 Reference value :  3.35087e-05
 Reference value :  3.35107e-05
 Reference value :  3.35216e-05
 Reference value :  3.35921e-05
 Reference value :  3.37501e-05
 Reference value :  3.37502e-05
 Reference value :  3.37503e-05
 Reference value :  3.37510e-05
 Reference value :  3.37519e-05
 Reference value :  3.37529e-05
 Reference value :  3.37545e-05
 Reference value :  3.37553e-05
 Reference value :  3.37576e-05
 Reference value :  3.37659e-05
 Reference value :  3.38236e-05
 Reference value :  3.40000e-05
 Reference value :  3.40000e-05
 Reference value :  3.40000e-05
 Reference value :  3.40000e-05
 Reference value :  3.40001e-05
 Reference value :  3.40001e-05
 Reference value :  3.40001e-05
 Reference value :  3.40003e-05
 Reference value :  3.40004e-05
 Reference value :  3.40007e-05
 Reference value :  3.40016e-05
 Reference value :  3.40020e-05
 Reference value :  3.40029e-05
 Reference value :  3.40040e-05
 Reference value :  3.40045e-05
 Reference value :  3.40055e-05
 Reference value :  3.40090e-05
 Reference value :  3.40173e-05
 Reference value :  3.40224e-05
 Reference value :  3.40263e-05
 Reference value :  3.40292e-05
 Reference value :  3.40341e-05
 Reference value :  3.40376e-05
 Reference value :  3.40406e-05
 Reference value :  3.40490e-05
 Reference value :  3.40572e-05
 Reference value :  3.40735e-05
 Reference value :  3.41126e-05
 Reference value :  3.41974e-05
 Reference value :  3.42501e-05
 Reference value :  3.42502e-05
 Reference value :  3.42502e-05
 Reference value :  3.42504e-05
 Reference value :  3.42510e-05
 Reference value :  3.42514e-05
 Reference value :  3.42523e-05
 Reference value :  3.42530e-05
 Reference value :  3.42534e-05
 Reference value :  3.42546e-05
 Reference value :  3.42573e-05
 Reference value :  3.42717e-05
 Reference value :  3.43454e-05
 Reference value :  3.43787e-05
 Reference value :  3.44005e-05
 Reference value :  3.44159e-05
 Reference value :  3.44428e-05
 Reference value :  3.44859e-05
 Reference value :  3.45000e-05
 Reference value :  3.45001e-05
 Reference value :  3.45002e-05
 Reference value :  3.45003e-05
 Reference value :  3.45008e-05
 Reference value :  3.45015e-05
 Reference value :  3.45028e-05
 Reference value :  3.45039e-05
 Reference value :  3.45064e-05
 Reference value :  3.45088e-05
 Reference value :  3.45112e-05
 Reference value :  3.45137e-05
 Reference value :  3.45173e-05
 Reference value :  3.45486e-05
 Reference value :  3.47501e-05
 Reference value :  3.47502e-05
 Reference value :  3.47503e-05
 Reference value :  3.47514e-05
 Reference value :  3.47530e-05
 Reference value :  3.47540e-05
 Reference value :  3.47550e-05
 Reference value :  3.47565e-05
 Reference value :  3.47582e-05
 Reference value :  3.47635e-05
 Reference value :  3.48056e-05
 Reference value :  3.50000e-05
 Reference value :  3.50000e-05
 Reference value :  3.50001e-05
 Reference value :  3.50002e-05
 Reference value :  3.50005e-05
 Reference value :  3.50012e-05
 Reference value :  3.50020e-05
 Reference value :  3.50029e-05
 Reference value :  3.50039e-05
 Reference value :  3.50048e-05
 Reference value :  3.50066e-05
 Reference value :  3.50075e-05
 Reference value :  3.50093e-05
 Reference value :  3.50112e-05
 Reference value :  3.50136e-05
 Reference value :  3.50153e-05
 Reference value :  3.50173e-05
 Reference value :  3.50298e-05
 Reference value :  3.51326e-05
 Reference value :  3.51682e-05
 Reference value :  3.51951e-05
 Reference value :  3.52074e-05
 Reference value :  3.52192e-05
 Reference value :  3.52444e-05
 Reference value :  3.52501e-05
 Reference value :  3.52502e-05
 Reference value :  3.52503e-05
 Reference value :  3.52510e-05
 Reference value :  3.52519e-05
 Reference value :  3.52530e-05
 Reference value :  3.52535e-05
 Reference value :  3.52546e-05
 Reference value :  3.52560e-05
 Reference value :  3.52589e-05
 Reference value :  3.52723e-05
 Reference value :  3.53723e-05
 Reference value :  3.55000e-05
 Reference value :  3.55001e-05
 Reference value :  3.55002e-05
 Reference value :  3.55003e-05
 Reference value :  3.55008e-05
 Reference value :  3.55016e-05
 Reference value :  3.55029e-05
 Reference value :  3.55047e-05
 Reference value :  3.55062e-05
 Reference value :  3.55087e-05
 Reference value :  3.55155e-05
 Reference value :  3.55832e-05
 Reference value :  3.57501e-05
 Reference value :  3.57502e-05
 Reference value :  3.57504e-05
 Reference value :  3.57510e-05
 Reference value :  3.57519e-05
 Reference value :  3.57530e-05
 Reference value :  3.57534e-05
 Reference value :  3.57545e-05
 Reference value :  3.57558e-05
 Reference value :  3.57603e-05
 Reference value :  3.57823e-05
 Reference value :  3.59572e-05
 Reference value :  3.60007e-05
 Reference value :  3.60029e-05
 Reference value :  3.60043e-05
 Reference value :  3.60055e-05
 Reference value :  3.60069e-05
 Reference value :  3.60092e-05
 Reference value :  3.60105e-05
 Reference value :  3.60130e-05
 Reference value :  3.60150e-05
 Reference value :  3.60174e-05
 Reference value :  3.60206e-05
 Reference value :  3.60341e-05
 Reference value :  3.60565e-05
 Reference value :  3.60668e-05
 Reference value :  3.60755e-05
 Reference value :  3.60907e-05
 Reference value :  3.61038e-05
 Reference value :  3.62501e-05
 Reference value :  3.62502e-05
 Reference value :  3.62503e-05
 Reference value :  3.62510e-05
 Reference value :  3.62519e-05
 Reference value :  3.62529e-05
 Reference value :  3.62534e-05
 Reference value :  3.62552e-05
 Reference value :  3.62587e-05
 Reference value :  3.62714e-05
 Reference value :  3.63644e-05
 Reference value :  3.65000e-05
 Reference value :  3.65001e-05
 Reference value :  3.65001e-05
 Reference value :  3.65003e-05
 Reference value :  3.65008e-05
 Reference value :  3.65015e-05
 Reference value :  3.65023e-05
 Reference value :  3.65028e-05
 Reference value :  3.65039e-05
 Reference value :  3.65054e-05
 Reference value :  3.65060e-05
 Reference value :  3.65075e-05
 Reference value :  3.65103e-05
 Reference value :  3.65167e-05
 Reference value :  3.65317e-05
 Reference value :  3.66432e-05
 Reference value :  3.67501e-05
 Reference value :  3.67502e-05
 Reference value :  3.67502e-05
 Reference value :  3.67503e-05
 Reference value :  3.67507e-05
 Reference value :  3.67514e-05
 Reference value :  3.67523e-05
 Reference value :  3.67530e-05
 Reference value :  3.67534e-05
 Reference value :  3.67545e-05
 Reference value :  3.67558e-05
 Reference value :  3.67584e-05
 Reference value :  3.67610e-05
 Reference value :  3.67898e-05
 Reference value :  3.70000e-05
 Reference value :  3.70001e-05
 Reference value :  3.70001e-05
 Reference value :  3.70002e-05
 Reference value :  3.70008e-05
 Reference value :  3.70016e-05
 Reference value :  3.70024e-05
 Reference value :  3.70034e-05
 Reference value :  3.70044e-05
 Reference value :  3.70053e-05
 Reference value :  3.70076e-05
 Reference value :  3.70093e-05
 Reference value :  3.70102e-05
 Reference value :  3.70119e-05
 Reference value :  3.70136e-05
 Reference value :  3.70145e-05
 Reference value :  3.70165e-05
 Reference value :  3.70194e-05
 Reference value :  3.70432e-05
 Reference value :  3.70519e-05
 Reference value :  3.70610e-05
 Reference value :  3.70659e-05
 Reference value :  3.70763e-05
 Reference value :  3.70909e-05
 Reference value :  3.71238e-05
 Reference value :  3.72242e-05
 Reference value :  3.72501e-05
 Reference value :  3.72502e-05
 Reference value :  3.72503e-05
 Reference value :  3.72504e-05
 Reference value :  3.72510e-05
 Reference value :  3.72519e-05
 Reference value :  3.72530e-05
 Reference value :  3.72546e-05
 Reference value :  3.72574e-05
 Reference value :  3.72724e-05
 Reference value :  3.74874e-05
 Reference value :  3.75000e-05
 Reference value :  3.75001e-05
 Reference value :  3.75002e-05
 Reference value :  3.75008e-05
 Reference value :  3.75016e-05
 Reference value :  3.75024e-05
 Reference value :  3.75029e-05
 Reference value :  3.75040e-05
 Reference value :  3.75055e-05
 Reference value :  3.75062e-05
 Reference value :  3.75077e-05
 Reference value :  3.75096e-05
 Reference value :  3.75155e-05
 Reference value :  3.75474e-05
 Reference value :  3.77501e-05
 Reference value :  3.77502e-05
 Reference value :  3.77502e-05
 Reference value :  3.77507e-05
 Reference value :  3.77514e-05
 Reference value :  3.77523e-05
 Reference value :  3.77534e-05
 Reference value :  3.77545e-05
 Reference value :  3.77558e-05
 Reference value :  3.77603e-05
 Reference value :  3.77822e-05
 Reference value :  3.78566e-05
 Reference value :  3.80000e-05
 Reference value :  3.80001e-05
 Reference value :  3.80001e-05
 Reference value :  3.80003e-05
 Reference value :  3.80008e-05
 Reference value :  3.80016e-05
 Reference value :  3.80029e-05
 Reference value :  3.80040e-05
 Reference value :  3.80050e-05
 Reference value :  3.80063e-05
 Reference value :  3.80085e-05
 Reference value :  3.80112e-05
 Reference value :  3.80132e-05
 Reference value :  3.80152e-05
 Reference value :  3.80174e-05
 Reference value :  3.80240e-05
 Reference value :  3.80436e-05
 Reference value :  3.80569e-05
 Reference value :  3.80678e-05
 Reference value :  3.80862e-05
 Reference value :  3.81079e-05
 Reference value :  3.81887e-05
 Reference value :  3.82501e-05
 Reference value :  3.82502e-05
 Reference value :  3.82502e-05
 Reference value :  3.82503e-05
 Reference value :  3.82504e-05
 Reference value :  3.82510e-05
 Reference value :  3.82514e-05
 Reference value :  3.82523e-05
 Reference value :  3.82534e-05
 Reference value :  3.82546e-05
 Reference value :  3.82573e-05
 Reference value :  3.82649e-05
 Reference value :  3.83134e-05
 Reference value :  3.85004e-05
 Reference value :  3.85014e-05
 Reference value :  3.85023e-05
 Reference value :  3.85028e-05
 Reference value :  3.85039e-05
 Reference value :  3.85054e-05
 Reference value :  3.85060e-05
 Reference value :  3.85075e-05
 Reference value :  3.85092e-05
 Reference value :  3.85115e-05
 Reference value :  3.85223e-05
 Reference value :  3.86786e-05
 Reference value :  3.87502e-05
 Reference value :  3.87503e-05
 Reference value :  3.87507e-05
 Reference value :  3.87514e-05
 Reference value :  3.87530e-05
 Reference value :  3.87540e-05
 Reference value :  3.87550e-05
 Reference value :  3.87566e-05
 Reference value :  3.87584e-05
 Reference value :  3.87610e-05
 Reference value :  3.87749e-05
 Reference value :  3.88796e-05
 Reference value :  3.90000e-05
 Reference value :  3.90001e-05
 Reference value :  3.90002e-05
 Reference value :  3.90005e-05
 Reference value :  3.90012e-05
 Reference value :  3.90020e-05
 Reference value :  3.90029e-05
 Reference value :  3.90039e-05
 Reference value :  3.90048e-05
 Reference value :  3.90066e-05
 Reference value :  3.90084e-05
 Reference value :  3.90093e-05
 Reference value :  3.90102e-05
 Reference value :  3.90119e-05
 Reference value :  3.90136e-05
 Reference value :  3.90154e-05
 Reference value :  3.90194e-05
 Reference value :  3.90267e-05
 Reference value :  3.90298e-05
 Reference value :  3.90339e-05
 Reference value :  3.90378e-05
 Reference value :  3.90500e-05
 Reference value :  3.91089e-05
 Reference value :  3.92501e-05
 Reference value :  3.92502e-05
 Reference value :  3.92503e-05
 Reference value :  3.92507e-05
 Reference value :  3.92514e-05
 Reference value :  3.92523e-05
 Reference value :  3.92535e-05
 Reference value :  3.92546e-05
 Reference value :  3.92574e-05
 Reference value :  3.92652e-05
 Reference value :  3.93154e-05
 Reference value :  3.95000e-05
 Reference value :  3.95000e-05
 Reference value :  3.95001e-05
 Reference value :  3.95001e-05
 Reference value :  3.95002e-05
 Reference value :  3.95005e-05
 Reference value :  3.95012e-05
 Reference value :  3.95020e-05
 Reference value :  3.95029e-05
 Reference value :  3.95040e-05
 Reference value :  3.95055e-05
 Reference value :  3.95062e-05
 Reference value :  3.95077e-05
 Reference value :  3.95096e-05
 Reference value :  3.95205e-05
 Reference value :  3.96532e-05
 Reference value :  3.97501e-05
 Reference value :  3.97502e-05
 Reference value :  3.97503e-05
 Reference value :  3.97510e-05
 Reference value :  3.97519e-05
 Reference value :  3.97530e-05
 Reference value :  3.97540e-05
 Reference value :  3.97550e-05
 Reference value :  3.97566e-05
 Reference value :  3.97697e-05
 Reference value :  3.99555e-05
 Reference value :  4.00000e-05
 Reference value :  4.00001e-05
 Reference value :  4.00002e-05
 Reference value :  4.00008e-05
 Reference value :  4.00016e-05
 Reference value :  4.00029e-05
 Reference value :  4.00045e-05
 Reference value :  4.00055e-05
 Reference value :  4.00085e-05
 Reference value :  4.00112e-05
 Reference value :  4.00132e-05
 Reference value :  4.00154e-05
 Reference value :  4.00193e-05
 Reference value :  4.00291e-05
 Reference value :  4.00760e-05
 Reference value :  4.02072e-05
 Reference value :  4.02501e-05
 Reference value :  4.02502e-05
 Reference value :  4.02503e-05
 Reference value :  4.02510e-05
 Reference value :  4.02519e-05
 Reference value :  4.02530e-05
 Reference value :  4.02540e-05
 Reference value :  4.02552e-05
 Reference value :  4.02616e-05
 Reference value :  4.03151e-05
 Reference value :  4.05000e-05
 Reference value :  4.05001e-05
 Reference value :  4.05001e-05
 Reference value :  4.05003e-05
 Reference value :  4.05012e-05
 Reference value :  4.05016e-05
 Reference value :  4.05024e-05
 Reference value :  4.05034e-05
 Reference value :  4.05055e-05
 Reference value :  4.05069e-05
 Reference value :  4.05086e-05
 Reference value :  4.05155e-05
 Reference value :  4.06515e-05
 Reference value :  4.07501e-05
 Reference value :  4.07502e-05
 Reference value :  4.07504e-05
 Reference value :  4.07510e-05
 Reference value :  4.07519e-05
 Reference value :  4.07530e-05
 Reference value :  4.07534e-05
 Reference value :  4.07545e-05
 Reference value :  4.07558e-05
 Reference value :  4.07582e-05
 Reference value :  4.07824e-05
 Reference value :  4.09578e-05
 Reference value :  4.10007e-05
 Reference value :  4.10029e-05
 Reference value :  4.10042e-05
 Reference value :  4.10054e-05
 Reference value :  4.10078e-05
 Reference value :  4.10091e-05
 Reference value :  4.10118e-05
 Reference value :  4.10128e-05
 Reference value :  4.10160e-05
 Reference value :  4.10183e-05
 Reference value :  4.10260e-05
 Reference value :  4.10302e-05
 Reference value :  4.10387e-05
 Reference value :  4.10479e-05
 Reference value :  4.10639e-05
 Reference value :  4.10978e-05
 Reference value :  4.12237e-05
 Reference value :  4.12501e-05
 Reference value :  4.12502e-05
 Reference value :  4.12504e-05
 Reference value :  4.12514e-05
 Reference value :  4.12523e-05
 Reference value :  4.12529e-05
 Reference value :  4.12534e-05
 Reference value :  4.12545e-05
 Reference value :  4.12573e-05
 Reference value :  4.12647e-05
 Reference value :  4.13110e-05
 Reference value :  4.15000e-05
 Reference value :  4.15001e-05
 Reference value :  4.15001e-05
 Reference value :  4.15003e-05
 Reference value :  4.15008e-05
 Reference value :  4.15015e-05
 Reference value :  4.15023e-05
 Reference value :  4.15033e-05
 Reference value :  4.15054e-05
 Reference value :  4.15066e-05
 Reference value :  4.15084e-05
 Reference value :  4.15103e-05
 Reference value :  4.15222e-05
 Reference value :  4.17501e-05
 Reference value :  4.17502e-05
 Reference value :  4.17502e-05
 Reference value :  4.17504e-05
 Reference value :  4.17510e-05
 Reference value :  4.17519e-05
 Reference value :  4.17530e-05
 Reference value :  4.17534e-05
 Reference value :  4.17545e-05
 Reference value :  4.17558e-05
 Reference value :  4.17575e-05
 Reference value :  4.17596e-05
 Reference value :  4.17746e-05
 Reference value :  4.19941e-05
 Reference value :  4.20000e-05
 Reference value :  4.20001e-05
 Reference value :  4.20002e-05
 Reference value :  4.20003e-05
 Reference value :  4.20008e-05
 Reference value :  4.20016e-05
 Reference value :  4.20024e-05
 Reference value :  4.20029e-05
 Reference value :  4.20039e-05
 Reference value :  4.20048e-05
 Reference value :  4.20059e-05
 Reference value :  4.20082e-05
 Reference value :  4.20099e-05
 Reference value :  4.20146e-05
 Reference value :  4.20230e-05
 Reference value :  4.20773e-05
 Reference value :  4.21194e-05
 Reference value :  4.21316e-05
 Reference value :  4.21662e-05
 Reference value :  4.22242e-05
 Reference value :  4.22501e-05
 Reference value :  4.22502e-05
 Reference value :  4.22503e-05
 Reference value :  4.22504e-05
 Reference value :  4.22510e-05
 Reference value :  4.22514e-05
 Reference value :  4.22523e-05
 Reference value :  4.22536e-05
 Reference value :  4.22553e-05
 Reference value :  4.22577e-05
 Reference value :  4.22663e-05
 Reference value :  4.23217e-05
 Reference value :  4.25000e-05
 Reference value :  4.25000e-05
 Reference value :  4.25000e-05
 Reference value :  4.25000e-05
 Reference value :  4.25001e-05
 Reference value :  4.25001e-05
 Reference value :  4.25003e-05
 Reference value :  4.25012e-05
 Reference value :  4.25020e-05
 Reference value :  4.25029e-05
 Reference value :  4.25040e-05
 Reference value :  4.25045e-05
 Reference value :  4.25055e-05
 Reference value :  4.25090e-05
 Reference value :  4.25224e-05
 Reference value :  4.25262e-05
 Reference value :  4.25291e-05
 Reference value :  4.25311e-05
 Reference value :  4.25343e-05
 Reference value :  4.25373e-05
 Reference value :  4.25396e-05
 Reference value :  4.25465e-05
 Reference value :  4.25535e-05
 Reference value :  4.25621e-05
 Reference value :  4.25919e-05
 Reference value :  4.26627e-05
 Reference value :  4.27501e-05
 Reference value :  4.27501e-05
 Reference value :  4.27502e-05
 Reference value :  4.27503e-05
 Reference value :  4.27504e-05
 Reference value :  4.27510e-05
 Reference value :  4.27514e-05
 Reference value :  4.27523e-05
 Reference value :  4.27534e-05
 Reference value :  4.27546e-05
 Reference value :  4.27559e-05
 Reference value :  4.27588e-05
 Reference value :  4.27649e-05
 Reference value :  4.28127e-05
[...]
 Reference value :  1.66008e-04
 Reference value :  1.66012e-04
 Reference value :  1.66081e-04
 Reference value :  1.66250e-04
 Reference value :  1.66250e-04
 Reference value :  1.66251e-04
 Reference value :  1.66252e-04
 Reference value :  1.66253e-04
 Reference value :  1.66254e-04
 Reference value :  1.66256e-04
 Reference value :  1.66270e-04
 Reference value :  1.66500e-04
 Reference value :  1.66500e-04
 Reference value :  1.66500e-04
 Reference value :  1.66501e-04
 Reference value :  1.66502e-04
 Reference value :  1.66503e-04
 Reference value :  1.66504e-04
 Reference value :  1.66506e-04
 Reference value :  1.66507e-04
 Reference value :  1.66510e-04
 Reference value :  1.66511e-04
 Reference value :  1.66513e-04
 Reference value :  1.66515e-04
 Reference value :  1.66519e-04
 Reference value :  1.66529e-04
 Reference value :  1.66540e-04
 Reference value :  1.66546e-04
 Reference value :  1.66550e-04
 Reference value :  1.66560e-04
 Reference value :  1.66572e-04
 Reference value :  1.66585e-04
 Reference value :  1.66632e-04
 Reference value :  1.66750e-04
 Reference value :  1.66750e-04
 Reference value :  1.66750e-04
 Reference value :  1.66750e-04
 Reference value :  1.66751e-04
 Reference value :  1.66752e-04
 Reference value :  1.66753e-04
 Reference value :  1.66753e-04
 Reference value :  1.66755e-04
 Reference value :  1.66759e-04
 Reference value :  1.66813e-04
 Reference value :  1.67000e-04
 Reference value :  1.67000e-04
 Reference value :  1.67000e-04
 Reference value :  1.67001e-04
 Reference value :  1.67002e-04
 Reference value :  1.67003e-04
 Reference value :  1.67005e-04
 Reference value :  1.67006e-04
 Reference value :  1.67007e-04
 Reference value :  1.67010e-04
 Reference value :  1.67022e-04
 Reference value :  1.67143e-04
 Reference value :  1.67250e-04
 Reference value :  1.67250e-04
 Reference value :  1.67251e-04
 Reference value :  1.67251e-04
 Reference value :  1.67253e-04
 Reference value :  1.67254e-04
 Reference value :  1.67256e-04
 Reference value :  1.67258e-04
 Reference value :  1.67267e-04
 Reference value :  1.67320e-04
 Reference value :  1.67500e-04
 Reference value :  1.67500e-04
 Reference value :  1.67500e-04
 Reference value :  1.67501e-04
 Reference value :  1.67501e-04
 Reference value :  1.67502e-04
 Reference value :  1.67502e-04
 Reference value :  1.67503e-04
 Reference value :  1.67504e-04
 Reference value :  1.67505e-04
 Reference value :  1.67508e-04
 Reference value :  1.67510e-04
 Reference value :  1.67513e-04
 Reference value :  1.67514e-04
 Reference value :  1.67517e-04
 Reference value :  1.67523e-04
 Reference value :  1.67539e-04
 Reference value :  1.67566e-04
 Reference value :  1.67580e-04
 Reference value :  1.67589e-04
 Reference value :  1.67628e-04
 Reference value :  1.67748e-04
 Reference value :  1.67750e-04
 Reference value :  1.67750e-04
 Reference value :  1.67750e-04
 Reference value :  1.67751e-04
 Reference value :  1.67752e-04
 Reference value :  1.67753e-04
 Reference value :  1.67754e-04
 Reference value :  1.67756e-04
 Reference value :  1.67762e-04
 Reference value :  1.67779e-04
 Reference value :  1.67867e-04
 Reference value :  1.67942e-04
 Reference value :  1.68000e-04
 Reference value :  1.68000e-04
 Reference value :  1.68000e-04
 Reference value :  1.68000e-04
 Reference value :  1.68001e-04
 Reference value :  1.68001e-04
 Reference value :  1.68002e-04
 Reference value :  1.68003e-04
 Reference value :  1.68004e-04
 Reference value :  1.68005e-04
 Reference value :  1.68006e-04
 Reference value :  1.68007e-04
 Reference value :  1.68009e-04
 Reference value :  1.68011e-04
 Reference value :  1.68022e-04
 Reference value :  1.68078e-04
 Reference value :  1.68250e-04
 Reference value :  1.68250e-04
 Reference value :  1.68250e-04
 Reference value :  1.68250e-04
 Reference value :  1.68251e-04
 Reference value :  1.68251e-04
 Reference value :  1.68253e-04
 Reference value :  1.68254e-04
 Reference value :  1.68255e-04
 Reference value :  1.68257e-04
 Reference value :  1.68258e-04
 Reference value :  1.68261e-04
 Reference value :  1.68289e-04
 Reference value :  1.68500e-04
 Reference value :  1.68500e-04
 Reference value :  1.68500e-04
 Reference value :  1.68500e-04
 Reference value :  1.68501e-04
 Reference value :  1.68502e-04
 Reference value :  1.68502e-04
 Reference value :  1.68504e-04
 Reference value :  1.68505e-04
 Reference value :  1.68508e-04
 Reference value :  1.68509e-04
 Reference value :  1.68510e-04
 Reference value :  1.68512e-04
 Reference value :  1.68513e-04
 Reference value :  1.68515e-04
 Reference value :  1.68516e-04
 Reference value :  1.68518e-04
 Reference value :  1.68524e-04
 Reference value :  1.68543e-04
 Reference value :  1.68644e-04
 Reference value :  1.68750e-04
 Reference value :  1.68750e-04
 Reference value :  1.68750e-04
 Reference value :  1.68751e-04
 Reference value :  1.68751e-04
 Reference value :  1.68753e-04
 Reference value :  1.68755e-04
 Reference value :  1.68759e-04
 Reference value :  1.68787e-04
 Reference value :  1.69000e-04
 Reference value :  1.69000e-04
 Reference value :  1.69000e-04
 Reference value :  1.69002e-04
 Reference value :  1.69003e-04
 Reference value :  1.69005e-04
 Reference value :  1.69006e-04
 Reference value :  1.69008e-04
 Reference value :  1.69011e-04
 Reference value :  1.69030e-04
 Reference value :  1.69250e-04
 Reference value :  1.69250e-04
 Reference value :  1.69251e-04
 Reference value :  1.69252e-04
 Reference value :  1.69253e-04
 Reference value :  1.69255e-04
 Reference value :  1.69258e-04
 Reference value :  1.69307e-04
 Reference value :  1.69500e-04
 Reference value :  1.69500e-04
 Reference value :  1.69500e-04
 Reference value :  1.69501e-04
 Reference value :  1.69502e-04
 Reference value :  1.69503e-04
 Reference value :  1.69505e-04
 Reference value :  1.69507e-04
 Reference value :  1.69512e-04
 Reference value :  1.69733e-04
 Reference value :  1.69750e-04
 Reference value :  1.69751e-04
 Reference value :  1.69752e-04
 Reference value :  1.69755e-04
 Reference value :  1.69758e-04
 Reference value :  1.69791e-04
 Reference value :  1.70000e-04
 Reference value :  1.70000e-04
 Reference value :  1.70000e-04
 Reference value :  1.70000e-04
 Reference value :  1.70000e-04
 Reference value :  1.70000e-04
 Reference value :  1.70000e-04
 Reference value :  1.70000e-04
 Reference value :  1.70002e-04
 Reference value :  1.70002e-04
 Reference value :  1.70003e-04
 Reference value :  1.70004e-04
 Reference value :  1.70004e-04
 Reference value :  1.70006e-04
 Reference value :  1.70017e-04
 Reference value :  1.70022e-04
 Reference value :  1.70026e-04
 Reference value :  1.70029e-04
 Reference value :  1.70034e-04
 Reference value :  1.70039e-04
 Reference value :  1.70049e-04
 Reference value :  1.70085e-04
 Reference value :  1.70145e-04
 Reference value :  1.70250e-04
 Reference value :  1.70250e-04
 Reference value :  1.70250e-04
 Reference value :  1.70250e-04
 Reference value :  1.70251e-04
 Reference value :  1.70251e-04
 Reference value :  1.70252e-04
 Reference value :  1.70253e-04
 Reference value :  1.70255e-04
 Reference value :  1.70256e-04
 Reference value :  1.70261e-04
 Reference value :  1.70285e-04
 Reference value :  1.70352e-04
 Reference value :  1.70421e-04
 Reference value :  1.70436e-04
 Reference value :  1.70467e-04
 Reference value :  1.70500e-04
 Reference value :  1.70500e-04
 Reference value :  1.70500e-04
 Reference value :  1.70501e-04
 Reference value :  1.70501e-04
 Reference value :  1.70502e-04
 Reference value :  1.70503e-04
 Reference value :  1.70506e-04
 Reference value :  1.70510e-04
 Reference value :  1.70512e-04
 Reference value :  1.70517e-04
 Reference value :  1.70549e-04
 Reference value :  1.70750e-04
 Reference value :  1.70750e-04
 Reference value :  1.70750e-04
 Reference value :  1.70751e-04
 Reference value :  1.70752e-04
 Reference value :  1.70753e-04
 Reference value :  1.70754e-04
 Reference value :  1.70756e-04
 Reference value :  1.70757e-04
 Reference value :  1.70761e-04
 Reference value :  1.70806e-04
 Reference value :  1.71000e-04
 Reference value :  1.71000e-04
 Reference value :  1.71000e-04
 Reference value :  1.71001e-04
 Reference value :  1.71002e-04
 Reference value :  1.71003e-04
 Reference value :  1.71004e-04
 Reference value :  1.71006e-04
 Reference value :  1.71008e-04
 Reference value :  1.71010e-04
 Reference value :  1.71012e-04
 Reference value :  1.71014e-04
 Reference value :  1.71016e-04
 Reference value :  1.71021e-04
 Reference value :  1.71056e-04
 Reference value :  1.71129e-04
 Reference value :  1.71166e-04
 Reference value :  1.71189e-04
 Reference value :  1.71206e-04
 Reference value :  1.71245e-04
 Reference value :  1.71250e-04
 Reference value :  1.71250e-04
 Reference value :  1.71250e-04
 Reference value :  1.71251e-04
 Reference value :  1.71252e-04
 Reference value :  1.71253e-04
 Reference value :  1.71255e-04
 Reference value :  1.71272e-04
 Reference value :  1.71500e-04
 Reference value :  1.71500e-04
 Reference value :  1.71501e-04
 Reference value :  1.71502e-04
 Reference value :  1.71502e-04
 Reference value :  1.71503e-04
 Reference value :  1.71505e-04
 Reference value :  1.71506e-04
 Reference value :  1.71508e-04
 Reference value :  1.71510e-04
 Reference value :  1.71515e-04
 Reference value :  1.71529e-04
 Reference value :  1.71652e-04
 Reference value :  1.71750e-04
 Reference value :  1.71750e-04
 Reference value :  1.71750e-04
 Reference value :  1.71750e-04
 Reference value :  1.71751e-04
 Reference value :  1.71751e-04
 Reference value :  1.71752e-04
 Reference value :  1.71753e-04
 Reference value :  1.71754e-04
 Reference value :  1.71756e-04
 Reference value :  1.71760e-04
 Reference value :  1.71782e-04
 Reference value :  1.71957e-04
 Reference value :  1.72000e-04
 Reference value :  1.72000e-04
 Reference value :  1.72000e-04
 Reference value :  1.72001e-04
 Reference value :  1.72002e-04
 Reference value :  1.72003e-04
 Reference value :  1.72004e-04
 Reference value :  1.72006e-04
 Reference value :  1.72010e-04
 Reference value :  1.72012e-04
 Reference value :  1.72015e-04
 Reference value :  1.72019e-04
 Reference value :  1.72037e-04
 Reference value :  1.72068e-04
 Reference value :  1.72086e-04
 Reference value :  1.72102e-04
 Reference value :  1.72113e-04
 Reference value :  1.72130e-04
 Reference value :  1.72174e-04
 Reference value :  1.72250e-04
 Reference value :  1.72250e-04
 Reference value :  1.72250e-04
 Reference value :  1.72251e-04
 Reference value :  1.72252e-04
 Reference value :  1.72253e-04
 Reference value :  1.72254e-04
 Reference value :  1.72255e-04
 Reference value :  1.72259e-04
 Reference value :  1.72286e-04
 Reference value :  1.72500e-04
 Reference value :  1.72500e-04
 Reference value :  1.72500e-04
 Reference value :  1.72500e-04
 Reference value :  1.72501e-04
 Reference value :  1.72502e-04
 Reference value :  1.72503e-04
 Reference value :  1.72504e-04
 Reference value :  1.72505e-04
 Reference value :  1.72506e-04
 Reference value :  1.72507e-04
 Reference value :  1.72509e-04
 Reference value :  1.72511e-04
 Reference value :  1.72517e-04
 Reference value :  1.72532e-04
 Reference value :  1.72643e-04
 Reference value :  1.72750e-04
 Reference value :  1.72750e-04
 Reference value :  1.72750e-04
 Reference value :  1.72751e-04
 Reference value :  1.72752e-04
 Reference value :  1.72753e-04
 Reference value :  1.72754e-04
 Reference value :  1.72755e-04
 Reference value :  1.72757e-04
 Reference value :  1.72760e-04
 Reference value :  1.72775e-04
 Reference value :  1.73000e-04
 Reference value :  1.73000e-04
 Reference value :  1.73000e-04
 Reference value :  1.73000e-04
 Reference value :  1.73001e-04
 Reference value :  1.73002e-04
 Reference value :  1.73002e-04
 Reference value :  1.73003e-04
 Reference value :  1.73004e-04
 Reference value :  1.73005e-04
 Reference value :  1.73007e-04
 Reference value :  1.73008e-04
 Reference value :  1.73010e-04
 Reference value :  1.73012e-04
 Reference value :  1.73014e-04
 Reference value :  1.73015e-04
 Reference value :  1.73018e-04
 Reference value :  1.73031e-04
 Reference value :  1.73036e-04
 Reference value :  1.73046e-04
 Reference value :  1.73052e-04
 Reference value :  1.73064e-04
 Reference value :  1.73076e-04
 Reference value :  1.73113e-04
 Reference value :  1.73234e-04
 Reference value :  1.73250e-04
 Reference value :  1.73250e-04
 Reference value :  1.73250e-04
 Reference value :  1.73251e-04
 Reference value :  1.73252e-04
 Reference value :  1.73253e-04
 Reference value :  1.73253e-04
 Reference value :  1.73255e-04
 Reference value :  1.73257e-04
 Reference value :  1.73265e-04
 Reference value :  1.73315e-04
 Reference value :  1.73500e-04
 Reference value :  1.73500e-04
 Reference value :  1.73500e-04
 Reference value :  1.73501e-04
 Reference value :  1.73501e-04
 Reference value :  1.73502e-04
 Reference value :  1.73502e-04
 Reference value :  1.73503e-04
 Reference value :  1.73505e-04
 Reference value :  1.73506e-04
 Reference value :  1.73508e-04
 Reference value :  1.73510e-04
 Reference value :  1.73530e-04
 Reference value :  1.73583e-04
 Reference value :  1.73750e-04
 Reference value :  1.73750e-04
 Reference value :  1.73750e-04
 Reference value :  1.73751e-04
 Reference value :  1.73752e-04
 Reference value :  1.73753e-04
 Reference value :  1.73753e-04
 Reference value :  1.73754e-04
 Reference value :  1.73756e-04
 Reference value :  1.73758e-04
 Reference value :  1.73764e-04
 Reference value :  1.73807e-04
 Reference value :  1.74000e-04
 Reference value :  1.74000e-04
 Reference value :  1.74000e-04
 Reference value :  1.74000e-04
 Reference value :  1.74001e-04
 Reference value :  1.74002e-04
 Reference value :  1.74002e-04
 Reference value :  1.74003e-04
 Reference value :  1.74004e-04
 Reference value :  1.74005e-04
 Reference value :  1.74006e-04
 Reference value :  1.74008e-04
 Reference value :  1.74011e-04
 Reference value :  1.74013e-04
 Reference value :  1.74015e-04
 Reference value :  1.74017e-04
 Reference value :  1.74024e-04
 Reference value :  1.74044e-04
 Reference value :  1.74060e-04
 Reference value :  1.74065e-04
 Reference value :  1.74076e-04
 Reference value :  1.74116e-04
 Reference value :  1.74145e-04
 Reference value :  1.74160e-04
 Reference value :  1.74183e-04
 Reference value :  1.74250e-04
 Reference value :  1.74250e-04
 Reference value :  1.74250e-04
 Reference value :  1.74251e-04
 Reference value :  1.74253e-04
 Reference value :  1.74254e-04
 Reference value :  1.74256e-04
 Reference value :  1.74265e-04
 Reference value :  1.74372e-04
 Reference value :  1.74500e-04
 Reference value :  1.74500e-04
 Reference value :  1.74500e-04
 Reference value :  1.74501e-04
 Reference value :  1.74502e-04
 Reference value :  1.74503e-04
 Reference value :  1.74505e-04
 Reference value :  1.74506e-04
 Reference value :  1.74508e-04
 Reference value :  1.74511e-04
 Reference value :  1.74520e-04
 Reference value :  1.74582e-04
 Reference value :  1.74750e-04
 Reference value :  1.74750e-04
 Reference value :  1.74750e-04
 Reference value :  1.74751e-04
 Reference value :  1.74752e-04
 Reference value :  1.74753e-04
 Reference value :  1.74754e-04
 Reference value :  1.74757e-04
 Reference value :  1.74770e-04
 Reference value :  1.74857e-04
 Reference value :  1.75000e-04
 Reference value :  1.75000e-04
 Reference value :  1.75000e-04
 Reference value :  1.75001e-04
 Reference value :  1.75002e-04
 Reference value :  1.75003e-04
 Reference value :  1.75004e-04
 Reference value :  1.75006e-04
 Reference value :  1.75010e-04
 Reference value :  1.75011e-04
 Reference value :  1.75013e-04
 Reference value :  1.75016e-04
 Reference value :  1.75029e-04
 Reference value :  1.75040e-04
 Reference value :  1.75050e-04
 Reference value :  1.75060e-04
 Reference value :  1.75084e-04
 Reference value :  1.75128e-04
 Reference value :  1.75250e-04
 Reference value :  1.75250e-04
 Reference value :  1.75250e-04
 Reference value :  1.75251e-04
 Reference value :  1.75251e-04
 Reference value :  1.75252e-04
 Reference value :  1.75253e-04
 Reference value :  1.75255e-04
 Reference value :  1.75257e-04
 Reference value :  1.75265e-04
 Reference value :  1.75313e-04
 Reference value :  1.75500e-04
 Reference value :  1.75500e-04
 Reference value :  1.75500e-04
 Reference value :  1.75500e-04
 Reference value :  1.75501e-04
 Reference value :  1.75502e-04
 Reference value :  1.75503e-04
 Reference value :  1.75504e-04
 Reference value :  1.75505e-04
 Reference value :  1.75506e-04
 Reference value :  1.75507e-04
 Reference value :  1.75509e-04
 Reference value :  1.75511e-04
 Reference value :  1.75522e-04
 Reference value :  1.75643e-04
 Reference value :  1.75750e-04
 Reference value :  1.75750e-04
 Reference value :  1.75751e-04
 Reference value :  1.75753e-04
 Reference value :  1.75755e-04
 Reference value :  1.75758e-04
 Reference value :  1.75775e-04
 Reference value :  1.76000e-04
 Reference value :  1.76000e-04
 Reference value :  1.76001e-04
 Reference value :  1.76002e-04
 Reference value :  1.76004e-04
 Reference value :  1.76006e-04
 Reference value :  1.76009e-04
 Reference value :  1.76011e-04
 Reference value :  1.76013e-04
 Reference value :  1.76019e-04
 Reference value :  1.76035e-04
 Reference value :  1.76049e-04
 Reference value :  1.76064e-04
 Reference value :  1.76129e-04
 Reference value :  1.76250e-04
 Reference value :  1.76250e-04
 Reference value :  1.76251e-04
 Reference value :  1.76253e-04
 Reference value :  1.76256e-04
 Reference value :  1.76287e-04
 Reference value :  1.76500e-04
 Reference value :  1.76500e-04
 Reference value :  1.76501e-04
 Reference value :  1.76502e-04
 Reference value :  1.76503e-04
 Reference value :  1.76506e-04
 Reference value :  1.76509e-04
 Reference value :  1.76520e-04
 Reference value :  1.76750e-04
 Reference value :  1.76750e-04
 Reference value :  1.76751e-04
 Reference value :  1.76752e-04
 Reference value :  1.76753e-04
 Reference value :  1.76755e-04
 Reference value :  1.76760e-04
 Reference value :  1.76957e-04
 Reference value :  1.77000e-04
 Reference value :  1.77000e-04
 Reference value :  1.77002e-04
 Reference value :  1.77003e-04
 Reference value :  1.77005e-04
 Reference value :  1.77008e-04
 Reference value :  1.77012e-04
 Reference value :  1.77015e-04
 Reference value :  1.77021e-04
 Reference value :  1.77035e-04
 Reference value :  1.77049e-04
 Reference value :  1.77081e-04
 Reference value :  1.77250e-04
 Reference value :  1.77250e-04
 Reference value :  1.77251e-04
 Reference value :  1.77252e-04
 Reference value :  1.77253e-04
 Reference value :  1.77256e-04
 Reference value :  1.77272e-04
 Reference value :  1.77500e-04
 Reference value :  1.77500e-04
 Reference value :  1.77500e-04
 Reference value :  1.77502e-04
 Reference value :  1.77503e-04
 Reference value :  1.77505e-04
 Reference value :  1.77507e-04
 Reference value :  1.77509e-04
 Reference value :  1.77517e-04
 Reference value :  1.77750e-04
 Reference value :  1.77750e-04
 Reference value :  1.77751e-04
 Reference value :  1.77752e-04
 Reference value :  1.77753e-04
 Reference value :  1.77755e-04
 Reference value :  1.77757e-04
 Reference value :  1.77764e-04
 Reference value :  1.77878e-04
 Reference value :  1.78000e-04
 Reference value :  1.78000e-04
 Reference value :  1.78001e-04
 Reference value :  1.78002e-04
 Reference value :  1.78004e-04
 Reference value :  1.78005e-04
 Reference value :  1.78008e-04
 Reference value :  1.78012e-04
 Reference value :  1.78041e-04
 Reference value :  1.78137e-04
 Reference value :  1.78250e-04
 Reference value :  1.78250e-04
 Reference value :  1.78251e-04
 Reference value :  1.78252e-04
 Reference value :  1.78254e-04
 Reference value :  1.78256e-04
 Reference value :  1.78266e-04
No. of Data Rows : 26139
ngspice-44 done
