
Note: Compatibility modes selected: hs a


Circuit: ** sch_path: /home/ece/cace/sar-adc-using-sky130-pdk/runs/run_2025-09-12_21-15-20/parameters/dnl/run_1/sar_output_dnl.sch

option SCALE: Scale is set to 1e-06 for instance and model parameters
option SCALE: Scale is set to 1e-06 for instance and model parameters
option SCALE: Scale is set to 1e-06 for instance and model parameters
option SCALE: Scale is set to 1e-06 for instance and model parameters
Doing analysis at TEMP = 27.000000 and TNOM = 27.000000

Using KLU as Direct Linear Solver
Operating point simulation skipped by 'uic',
  now using transient initial conditions.
 Reference value :  1.00000e-12
 Reference value :  1.02800e-12
 Reference value :  1.19600e-12
 Reference value :  2.36136e-12
 Reference value :  4.46062e-12
 Reference value :  9.53354e-12
 Reference value :  3.15529e-11
 Reference value :  1.04793e-10
 Reference value :  1.71897e-10
 Reference value :  6.42455e-10
 Reference value :  1.86466e-09
 Reference value :  4.20822e-09
 Reference value :  5.93079e-09
 Reference value :  7.95073e-09
 Reference value :  9.66757e-09
 Reference value :  1.61101e-08
 Reference value :  3.18430e-08
 Reference value :  5.85454e-08
 Reference value :  2.50110e-07
 Reference value :  2.50222e-07
 Reference value :  2.50748e-07
 Reference value :  2.51917e-07
 Reference value :  2.54457e-07
 Reference value :  2.57582e-07
 Reference value :  2.73104e-07
 Reference value :  5.00010e-07
 Reference value :  5.00124e-07
 Reference value :  5.00520e-07
 Reference value :  5.01766e-07
 Reference value :  5.02702e-07
 Reference value :  5.05649e-07
 Reference value :  5.09953e-07
 Reference value :  5.14403e-07
 Reference value :  5.19868e-07
 Reference value :  6.71187e-07
 Reference value :  7.50200e-07
 Reference value :  7.50448e-07
 Reference value :  7.52047e-07
 Reference value :  7.54715e-07
 Reference value :  7.57975e-07
 Reference value :  7.65787e-07
 Reference value :  9.29396e-07
 Reference value :  1.00011e-06
 Reference value :  1.00086e-06
 Reference value :  1.00224e-06
 Reference value :  1.00404e-06
 Reference value :  1.00458e-06
 Reference value :  1.00583e-06
 Reference value :  1.00711e-06
 Reference value :  1.01046e-06
 Reference value :  1.01144e-06
 Reference value :  1.01377e-06
 Reference value :  1.01611e-06
 Reference value :  1.01833e-06
 Reference value :  1.02208e-06
 Reference value :  1.03812e-06
 Reference value :  1.17344e-06
 Reference value :  1.25013e-06
 Reference value :  1.25022e-06
 Reference value :  1.25070e-06
 Reference value :  1.25203e-06
 Reference value :  1.25404e-06
 Reference value :  1.25532e-06
 Reference value :  1.25687e-06
 Reference value :  1.26171e-06
 Reference value :  1.29938e-06
 Reference value :  1.50001e-06
 Reference value :  1.50011e-06
 Reference value :  1.50035e-06
 Reference value :  1.50130e-06
 Reference value :  1.50221e-06
 Reference value :  1.50405e-06
 Reference value :  1.50561e-06
 Reference value :  1.50754e-06
 Reference value :  1.50947e-06
 Reference value :  1.51277e-06
 Reference value :  1.52875e-06
 Reference value :  1.72620e-06
 Reference value :  1.75017e-06
 Reference value :  1.75026e-06
 Reference value :  1.75070e-06
 Reference value :  1.75202e-06
 Reference value :  1.75404e-06
 Reference value :  1.75533e-06
 Reference value :  1.75787e-06
 Reference value :  1.76126e-06
 Reference value :  1.76906e-06
 Reference value :  1.79849e-06
 Reference value :  2.00000e-06
 Reference value :  2.00007e-06
 Reference value :  2.00012e-06
 Reference value :  2.00035e-06
 Reference value :  2.00130e-06
 Reference value :  2.00224e-06
 Reference value :  2.00341e-06
 Reference value :  2.00457e-06
 Reference value :  2.00583e-06
 Reference value :  2.00712e-06
 Reference value :  2.01046e-06
 Reference value :  2.01145e-06
 Reference value :  2.01377e-06
 Reference value :  2.01612e-06
 Reference value :  2.01836e-06
 Reference value :  2.02086e-06
 Reference value :  2.02667e-06
 Reference value :  2.05194e-06
 Reference value :  2.16470e-06
 Reference value :  2.25013e-06
 Reference value :  2.25021e-06
 Reference value :  2.25032e-06
 Reference value :  2.25106e-06
 Reference value :  2.25204e-06
 Reference value :  2.25328e-06
 Reference value :  2.25467e-06
 Reference value :  2.25601e-06
 Reference value :  2.25693e-06
 Reference value :  2.26186e-06
 Reference value :  2.28185e-06
 Reference value :  2.48843e-06
 Reference value :  2.50003e-06
 Reference value :  2.50011e-06
 Reference value :  2.50022e-06
 Reference value :  2.50086e-06
 Reference value :  2.50177e-06
 Reference value :  2.50270e-06
 Reference value :  2.50405e-06
 Reference value :  2.50561e-06
 Reference value :  2.50754e-06
 Reference value :  2.50947e-06
 Reference value :  2.51158e-06
 Reference value :  2.51412e-06
 Reference value :  2.52859e-06
 Reference value :  2.72094e-06
 Reference value :  2.75017e-06
 Reference value :  2.75026e-06
 Reference value :  2.75070e-06
 Reference value :  2.75202e-06
 Reference value :  2.75326e-06
 Reference value :  2.75465e-06
 Reference value :  2.75696e-06
 Reference value :  2.75884e-06
 Reference value :  2.76125e-06
 Reference value :  2.77512e-06
 Reference value :  2.85713e-06
 Reference value :  3.00003e-06
 Reference value :  3.00011e-06
 Reference value :  3.00022e-06
 Reference value :  3.00086e-06
 Reference value :  3.00176e-06
 Reference value :  3.00277e-06
 Reference value :  3.00403e-06
 Reference value :  3.00457e-06
 Reference value :  3.00583e-06
 Reference value :  3.00712e-06
 Reference value :  3.01047e-06
 Reference value :  3.01145e-06
 Reference value :  3.01377e-06
 Reference value :  3.01614e-06
 Reference value :  3.01840e-06
 Reference value :  3.02096e-06
 Reference value :  3.02694e-06
 Reference value :  3.05355e-06
 Reference value :  3.09556e-06
 Reference value :  3.16026e-06
 Reference value :  3.18936e-06
 Reference value :  3.20585e-06
 Reference value :  3.25010e-06
 Reference value :  3.25013e-06
 Reference value :  3.25021e-06
 Reference value :  3.25032e-06
 Reference value :  3.25105e-06
 Reference value :  3.25202e-06
 Reference value :  3.25404e-06
 Reference value :  3.25531e-06
 Reference value :  3.25684e-06
 Reference value :  3.26166e-06
 Reference value :  3.29864e-06
 Reference value :  3.31731e-06
 Reference value :  3.34283e-06
 Reference value :  3.40233e-06
 Reference value :  3.50000e-06
 Reference value :  3.50010e-06
 Reference value :  3.50022e-06
 Reference value :  3.50086e-06
 Reference value :  3.50177e-06
 Reference value :  3.50271e-06
 Reference value :  3.50406e-06
 Reference value :  3.50675e-06
 Reference value :  3.50843e-06
 Reference value :  3.51158e-06
 Reference value :  3.52083e-06
 Reference value :  3.61760e-06
 Reference value :  3.75013e-06
 Reference value :  3.75022e-06
 Reference value :  3.75045e-06
 Reference value :  3.75152e-06
 Reference value :  3.75254e-06
 Reference value :  3.75403e-06
 Reference value :  3.75464e-06
 Reference value :  3.75604e-06
 Reference value :  3.75785e-06
 Reference value :  3.75994e-06
 Reference value :  3.76545e-06
 Reference value :  3.78377e-06
 Reference value :  3.85750e-06
 Reference value :  4.00001e-06
 Reference value :  4.00010e-06
 Reference value :  4.00016e-06
 Reference value :  4.00052e-06
 Reference value :  4.00130e-06
 Reference value :  4.00224e-06
 Reference value :  4.00403e-06
 Reference value :  4.00457e-06
 Reference value :  4.00583e-06
 Reference value :  4.00644e-06
 Reference value :  4.00801e-06
 Reference value :  4.01046e-06
 Reference value :  4.01145e-06
 Reference value :  4.01377e-06
 Reference value :  4.01614e-06
 Reference value :  4.01841e-06
 Reference value :  4.02101e-06
 Reference value :  4.02710e-06
 Reference value :  4.03571e-06
 Reference value :  4.04074e-06
 Reference value :  4.04424e-06
 Reference value :  4.05002e-06
 Reference value :  4.06159e-06
 Reference value :  4.07887e-06
 Reference value :  4.11133e-06
 Reference value :  4.16979e-06
 Reference value :  4.25011e-06
 Reference value :  4.25020e-06
 Reference value :  4.25026e-06
 Reference value :  4.25070e-06
 Reference value :  4.25152e-06
 Reference value :  4.25254e-06
 Reference value :  4.25405e-06
 Reference value :  4.25599e-06
 Reference value :  4.25950e-06
 Reference value :  4.29864e-06
 Reference value :  4.50003e-06
 Reference value :  4.50012e-06
 Reference value :  4.50052e-06
 Reference value :  4.50176e-06
 Reference value :  4.50277e-06
 Reference value :  4.50463e-06
 Reference value :  4.50730e-06
 Reference value :  4.50925e-06
 Reference value :  4.51123e-06
 Reference value :  4.51363e-06
 Reference value :  4.55032e-06
 Reference value :  4.75011e-06
 Reference value :  4.75020e-06
 Reference value :  4.75032e-06
 Reference value :  4.75106e-06
 Reference value :  4.75203e-06
 Reference value :  4.75328e-06
 Reference value :  4.75469e-06
 Reference value :  4.75706e-06
 Reference value :  4.76198e-06
 Reference value :  4.80007e-06
 Reference value :  4.98094e-06
 Reference value :  5.00001e-06
 Reference value :  5.00007e-06
 Reference value :  5.00012e-06
 Reference value :  5.00022e-06
 Reference value :  5.00052e-06
 Reference value :  5.00130e-06
 Reference value :  5.00224e-06
 Reference value :  5.00340e-06
 Reference value :  5.00458e-06
 Reference value :  5.00582e-06
 Reference value :  5.00711e-06
 Reference value :  5.01062e-06
 Reference value :  5.01402e-06
 Reference value :  5.01670e-06
 Reference value :  5.01908e-06
 Reference value :  5.02343e-06
 Reference value :  5.04278e-06
 Reference value :  5.17113e-06
 Reference value :  5.25013e-06
 Reference value :  5.25022e-06
 Reference value :  5.25070e-06
 Reference value :  5.25202e-06
 Reference value :  5.25405e-06
 Reference value :  5.25533e-06
 Reference value :  5.25777e-06
 Reference value :  5.26502e-06
 Reference value :  5.38720e-06
 Reference value :  5.50001e-06
 Reference value :  5.50010e-06
 Reference value :  5.50016e-06
 Reference value :  5.50097e-06
 Reference value :  5.50258e-06
 Reference value :  5.50438e-06
 Reference value :  5.50707e-06
 Reference value :  5.50872e-06
 Reference value :  5.51195e-06
 Reference value :  5.52233e-06
 Reference value :  5.60574e-06
 Reference value :  5.75011e-06
 Reference value :  5.75020e-06
 Reference value :  5.75032e-06
 Reference value :  5.75105e-06
 Reference value :  5.75203e-06
 Reference value :  5.75328e-06
 Reference value :  5.75469e-06
 Reference value :  5.75609e-06
 Reference value :  5.75786e-06
 Reference value :  5.76538e-06
 Reference value :  5.88438e-06
 Reference value :  6.00003e-06
 Reference value :  6.00011e-06
 Reference value :  6.00035e-06
 Reference value :  6.00086e-06
 Reference value :  6.00130e-06
 Reference value :  6.00224e-06
 Reference value :  6.00403e-06
 Reference value :  6.00520e-06
 Reference value :  6.00643e-06
 Reference value :  6.00901e-06
 Reference value :  6.01256e-06
 Reference value :  6.01402e-06
 Reference value :  6.01669e-06
 Reference value :  6.01907e-06
 Reference value :  6.02342e-06
 Reference value :  6.03410e-06
 Reference value :  6.09083e-06
 Reference value :  6.25011e-06
 Reference value :  6.25020e-06
 Reference value :  6.25032e-06
 Reference value :  6.25105e-06
 Reference value :  6.25203e-06
 Reference value :  6.25407e-06
 Reference value :  6.25536e-06
 Reference value :  6.25692e-06
 Reference value :  6.26182e-06
 Reference value :  6.29898e-06
 Reference value :  6.50000e-06
 Reference value :  6.50007e-06
 Reference value :  6.50016e-06
 Reference value :  6.50086e-06
 Reference value :  6.50176e-06
 Reference value :  6.50277e-06
 Reference value :  6.50464e-06
 Reference value :  6.50730e-06
 Reference value :  6.50926e-06
 Reference value :  6.51124e-06
 Reference value :  6.51617e-06
 Reference value :  6.55038e-06
 Reference value :  6.75010e-06
 Reference value :  6.75013e-06
 Reference value :  6.75021e-06
 Reference value :  6.75032e-06
 Reference value :  6.75105e-06
 Reference value :  6.75203e-06
 Reference value :  6.75328e-06
 Reference value :  6.75468e-06
 Reference value :  6.75608e-06
 Reference value :  6.75786e-06
 Reference value :  6.76537e-06
 Reference value :  6.79914e-06
 Reference value :  6.97779e-06
 Reference value :  7.00003e-06
 Reference value :  7.00011e-06
 Reference value :  7.00022e-06
 Reference value :  7.00086e-06
 Reference value :  7.00176e-06
 Reference value :  7.00224e-06
 Reference value :  7.00340e-06
 Reference value :  7.00458e-06
 Reference value :  7.00582e-06
 Reference value :  7.00711e-06
 Reference value :  7.01062e-06
 Reference value :  7.01402e-06
 Reference value :  7.01669e-06
 Reference value :  7.01907e-06
 Reference value :  7.02340e-06
 Reference value :  7.04276e-06
 Reference value :  7.23356e-06
 Reference value :  7.25013e-06
 Reference value :  7.25021e-06
 Reference value :  7.25032e-06
 Reference value :  7.25105e-06
 Reference value :  7.25202e-06
 Reference value :  7.25326e-06
 Reference value :  7.25465e-06
 Reference value :  7.25600e-06
 Reference value :  7.25777e-06
 Reference value :  7.26504e-06
 Reference value :  7.29840e-06
 Reference value :  7.49776e-06
 Reference value :  7.50003e-06
 Reference value :  7.50011e-06
 Reference value :  7.50022e-06
 Reference value :  7.50052e-06
 Reference value :  7.50130e-06
 Reference value :  7.50224e-06
 Reference value :  7.50340e-06
 Reference value :  7.50464e-06
 Reference value :  7.50629e-06
 Reference value :  7.50827e-06
 Reference value :  7.51020e-06
 Reference value :  7.51238e-06
 Reference value :  7.52123e-06
 Reference value :  7.66692e-06
 Reference value :  7.75017e-06
 Reference value :  7.75026e-06
 Reference value :  7.75105e-06
 Reference value :  7.75203e-06
 Reference value :  7.75405e-06
 Reference value :  7.75537e-06
 Reference value :  7.75792e-06
 Reference value :  7.78208e-06
 Reference value :  8.00001e-06
 Reference value :  8.00011e-06
 Reference value :  8.00035e-06
 Reference value :  8.00130e-06
 Reference value :  8.00276e-06
 Reference value :  8.00403e-06
 Reference value :  8.00520e-06
 Reference value :  8.00582e-06
 Reference value :  8.00643e-06
 Reference value :  8.00901e-06
 Reference value :  8.01112e-06
 Reference value :  8.01788e-06
 Reference value :  8.05055e-06
 Reference value :  8.25010e-06
 Reference value :  8.25017e-06
 Reference value :  8.25026e-06
 Reference value :  8.25070e-06
 Reference value :  8.25202e-06
 Reference value :  8.25421e-06
 Reference value :  8.25854e-06
 Reference value :  8.29389e-06
 Reference value :  8.50000e-06
 Reference value :  8.50000e-06
 Reference value :  8.50004e-06
 Reference value :  8.50012e-06
 Reference value :  8.50045e-06
 Reference value :  8.50245e-06
 Reference value :  8.50443e-06
 Reference value :  8.50631e-06
 Reference value :  8.51132e-06
 Reference value :  8.52877e-06
 Reference value :  8.53373e-06
 Reference value :  8.53742e-06
 Reference value :  8.54026e-06
 Reference value :  8.54503e-06
 Reference value :  8.54719e-06
 Reference value :  8.55194e-06
 Reference value :  8.55495e-06
 Reference value :  8.56623e-06
 Reference value :  8.59238e-06
 Reference value :  8.60379e-06
 Reference value :  8.61615e-06
 Reference value :  8.64099e-06
 Reference value :  8.75011e-06
 Reference value :  8.75021e-06
 Reference value :  8.75045e-06
 Reference value :  8.75152e-06
 Reference value :  8.75254e-06
 Reference value :  8.75399e-06
 Reference value :  8.75531e-06
 Reference value :  8.75801e-06
 Reference value :  8.76566e-06
 Reference value :  8.80124e-06
 Reference value :  9.00001e-06
 Reference value :  9.00010e-06
 Reference value :  9.00016e-06
 Reference value :  9.00035e-06
 Reference value :  9.00086e-06
 Reference value :  9.00177e-06
 Reference value :  9.00221e-06
 Reference value :  9.00332e-06
 Reference value :  9.00485e-06
 Reference value :  9.00807e-06
 Reference value :  9.01131e-06
 Reference value :  9.01442e-06
 Reference value :  9.01598e-06
 Reference value :  9.01975e-06
 Reference value :  9.03190e-06
 Reference value :  9.09525e-06
 Reference value :  9.25013e-06
 Reference value :  9.25021e-06
 Reference value :  9.25032e-06
 Reference value :  9.25105e-06
 Reference value :  9.25203e-06
 Reference value :  9.25404e-06
 Reference value :  9.25536e-06
 Reference value :  9.25701e-06
 Reference value :  9.25995e-06
 Reference value :  9.26512e-06
 Reference value :  9.28989e-06
 Reference value :  9.40189e-06
 Reference value :  9.50001e-06
 Reference value :  9.50010e-06
 Reference value :  9.50022e-06
 Reference value :  9.50086e-06
 Reference value :  9.50176e-06
 Reference value :  9.50277e-06
 Reference value :  9.50457e-06
 Reference value :  9.50583e-06
 Reference value :  9.50711e-06
 Reference value :  9.50900e-06
 Reference value :  9.51145e-06
 Reference value :  9.51377e-06
 Reference value :  9.51715e-06
 Reference value :  9.52078e-06
 Reference value :  9.53028e-06
 Reference value :  9.59673e-06
 Reference value :  9.75011e-06
 Reference value :  9.75020e-06
 Reference value :  9.75032e-06
 Reference value :  9.75105e-06
 Reference value :  9.75201e-06
 Reference value :  9.75403e-06
 Reference value :  9.75529e-06
 Reference value :  9.75682e-06
 Reference value :  9.76490e-06
 Reference value :  9.83021e-06
 Reference value :  1.00000e-05
 Reference value :  1.00001e-05
 Reference value :  1.00003e-05
 Reference value :  1.00013e-05
 Reference value :  1.00022e-05
 Reference value :  1.00041e-05
 Reference value :  1.00075e-05
 Reference value :  1.00116e-05
 Reference value :  1.00208e-05
 Reference value :  1.02501e-05
 Reference value :  1.02502e-05
 Reference value :  1.02511e-05
 Reference value :  1.02520e-05
 Reference value :  1.02540e-05
 Reference value :  1.02553e-05
 Reference value :  1.02569e-05
 Reference value :  1.02599e-05
 Reference value :  1.02654e-05
 Reference value :  1.02837e-05
 Reference value :  1.03572e-05
 Reference value :  1.05000e-05
 Reference value :  1.05001e-05
 Reference value :  1.05002e-05
 Reference value :  1.05009e-05
 Reference value :  1.05013e-05
 Reference value :  1.05022e-05
 Reference value :  1.05040e-05
 Reference value :  1.05046e-05
 Reference value :  1.05058e-05
 Reference value :  1.05064e-05
 Reference value :  1.05080e-05
 Reference value :  1.05115e-05
 Reference value :  1.05138e-05
 Reference value :  1.05161e-05
 Reference value :  1.05183e-05
 Reference value :  1.05208e-05
 Reference value :  1.05265e-05
 Reference value :  1.05493e-05
 Reference value :  1.06535e-05
 Reference value :  1.07501e-05
 Reference value :  1.07502e-05
 Reference value :  1.07503e-05
 Reference value :  1.07511e-05
 Reference value :  1.07520e-05
 Reference value :  1.07540e-05
 Reference value :  1.07553e-05
 Reference value :  1.07568e-05
 Reference value :  1.07649e-05
 Reference value :  1.08303e-05
 Reference value :  1.10000e-05
 Reference value :  1.10001e-05
 Reference value :  1.10002e-05
 Reference value :  1.10013e-05
 Reference value :  1.10027e-05
 Reference value :  1.10049e-05
 Reference value :  1.10067e-05
 Reference value :  1.10084e-05
 Reference value :  1.10106e-05
 Reference value :  1.10128e-05
 Reference value :  1.10419e-05
 Reference value :  1.12501e-05
 Reference value :  1.12502e-05
 Reference value :  1.12503e-05
 Reference value :  1.12511e-05
 Reference value :  1.12520e-05
 Reference value :  1.12540e-05
 Reference value :  1.12553e-05
 Reference value :  1.12569e-05
 Reference value :  1.12599e-05
 Reference value :  1.12654e-05
 Reference value :  1.12984e-05
 Reference value :  1.14156e-05
 Reference value :  1.15000e-05
 Reference value :  1.15001e-05
 Reference value :  1.15002e-05
 Reference value :  1.15009e-05
 Reference value :  1.15018e-05
 Reference value :  1.15028e-05
 Reference value :  1.15046e-05
 Reference value :  1.15058e-05
 Reference value :  1.15071e-05
 Reference value :  1.15105e-05
 Reference value :  1.15115e-05
 Reference value :  1.15138e-05
 Reference value :  1.15161e-05
 Reference value :  1.15184e-05
 Reference value :  1.15209e-05
 Reference value :  1.15267e-05
 Reference value :  1.15520e-05
 Reference value :  1.15925e-05
 Reference value :  1.16524e-05
 Reference value :  1.16960e-05
 Reference value :  1.17249e-05
 Reference value :  1.17501e-05
 Reference value :  1.17502e-05
 Reference value :  1.17503e-05
 Reference value :  1.17507e-05
 Reference value :  1.17515e-05
 Reference value :  1.17526e-05
 Reference value :  1.17541e-05
 Reference value :  1.17547e-05
 Reference value :  1.17560e-05
 Reference value :  1.17578e-05
 Reference value :  1.17652e-05
 Reference value :  1.17987e-05
 Reference value :  1.18631e-05
 Reference value :  1.19016e-05
 Reference value :  1.19292e-05
 Reference value :  1.19980e-05
 Reference value :  1.20000e-05
 Reference value :  1.20001e-05
 Reference value :  1.20002e-05
 Reference value :  1.20005e-05
 Reference value :  1.20013e-05
 Reference value :  1.20022e-05
 Reference value :  1.20041e-05
 Reference value :  1.20068e-05
 Reference value :  1.20084e-05
 Reference value :  1.20106e-05
 Reference value :  1.20128e-05
 Reference value :  1.20419e-05
 Reference value :  1.22501e-05
 Reference value :  1.22502e-05
 Reference value :  1.22504e-05
 Reference value :  1.22515e-05
 Reference value :  1.22520e-05
 Reference value :  1.22540e-05
 Reference value :  1.22553e-05
 Reference value :  1.22578e-05
 Reference value :  1.22599e-05
 Reference value :  1.22654e-05
 Reference value :  1.22985e-05
 Reference value :  1.25000e-05
 Reference value :  1.25001e-05
 Reference value :  1.25003e-05
 Reference value :  1.25013e-05
 Reference value :  1.25022e-05
 Reference value :  1.25040e-05
 Reference value :  1.25046e-05
 Reference value :  1.25058e-05
 Reference value :  1.25071e-05
 Reference value :  1.25105e-05
 Reference value :  1.25114e-05
 Reference value :  1.25138e-05
 Reference value :  1.25162e-05
 Reference value :  1.25185e-05
 Reference value :  1.25211e-05
 Reference value :  1.25273e-05
 Reference value :  1.25363e-05
 Reference value :  1.25454e-05
 Reference value :  1.25641e-05
 Reference value :  1.26217e-05
 Reference value :  1.27501e-05
 Reference value :  1.27502e-05
 Reference value :  1.27503e-05
 Reference value :  1.27511e-05
 Reference value :  1.27520e-05
 Reference value :  1.27541e-05
 Reference value :  1.27554e-05
 Reference value :  1.27569e-05
 Reference value :  1.27596e-05
 Reference value :  1.27814e-05
 Reference value :  1.29827e-05
 Reference value :  1.30000e-05
 Reference value :  1.30001e-05
 Reference value :  1.30002e-05
 Reference value :  1.30009e-05
 Reference value :  1.30018e-05
 Reference value :  1.30028e-05
 Reference value :  1.30040e-05
 Reference value :  1.30053e-05
 Reference value :  1.30073e-05
 Reference value :  1.30093e-05
 Reference value :  1.30112e-05
 Reference value :  1.30162e-05
 Reference value :  1.30891e-05
 Reference value :  1.32501e-05
 Reference value :  1.32502e-05
 Reference value :  1.32503e-05
 Reference value :  1.32507e-05
 Reference value :  1.32520e-05
 Reference value :  1.32533e-05
 Reference value :  1.32547e-05
 Reference value :  1.32570e-05
 Reference value :  1.32620e-05
 Reference value :  1.32998e-05
 Reference value :  1.35000e-05
 Reference value :  1.35000e-05
 Reference value :  1.35001e-05
 Reference value :  1.35002e-05
 Reference value :  1.35009e-05
 Reference value :  1.35018e-05
 Reference value :  1.35022e-05
 Reference value :  1.35034e-05
 Reference value :  1.35046e-05
 Reference value :  1.35058e-05
 Reference value :  1.35071e-05
 Reference value :  1.35090e-05
 Reference value :  1.35126e-05
 Reference value :  1.35140e-05
 Reference value :  1.35154e-05
 Reference value :  1.35180e-05
 Reference value :  1.35203e-05
 Reference value :  1.35253e-05
 Reference value :  1.35423e-05
 Reference value :  1.35939e-05
 Reference value :  1.36676e-05
 Reference value :  1.37501e-05
 Reference value :  1.37502e-05
 Reference value :  1.37507e-05
 Reference value :  1.37520e-05
 Reference value :  1.37540e-05
 Reference value :  1.37560e-05
 Reference value :  1.37595e-05
 Reference value :  1.37986e-05
 Reference value :  1.40000e-05
 Reference value :  1.40001e-05
 Reference value :  1.40003e-05
 Reference value :  1.40013e-05
 Reference value :  1.40022e-05
 Reference value :  1.40040e-05
 Reference value :  1.40053e-05
 Reference value :  1.40073e-05
 Reference value :  1.40093e-05
 Reference value :  1.40112e-05
 Reference value :  1.40162e-05
 Reference value :  1.40893e-05
 Reference value :  1.42501e-05
 Reference value :  1.42502e-05
 Reference value :  1.42507e-05
 Reference value :  1.42520e-05
 Reference value :  1.42533e-05
 Reference value :  1.42547e-05
 Reference value :  1.42570e-05
 Reference value :  1.42620e-05
 Reference value :  1.42998e-05
 Reference value :  1.45000e-05
 Reference value :  1.45001e-05
 Reference value :  1.45001e-05
 Reference value :  1.45005e-05
 Reference value :  1.45013e-05
 Reference value :  1.45022e-05
 Reference value :  1.45040e-05
 Reference value :  1.45052e-05
 Reference value :  1.45064e-05
 Reference value :  1.45106e-05
 Reference value :  1.45140e-05
 Reference value :  1.45167e-05
 Reference value :  1.45191e-05
 Reference value :  1.45234e-05
 Reference value :  1.45423e-05
 Reference value :  1.46311e-05
 Reference value :  1.47501e-05
 Reference value :  1.47502e-05
 Reference value :  1.47504e-05
 Reference value :  1.47515e-05
 Reference value :  1.47533e-05
 Reference value :  1.47547e-05
 Reference value :  1.47569e-05
 Reference value :  1.47653e-05
 Reference value :  1.48307e-05
 Reference value :  1.50000e-05
 Reference value :  1.50001e-05
 Reference value :  1.50001e-05
 Reference value :  1.50003e-05
 Reference value :  1.50013e-05
 Reference value :  1.50022e-05
 Reference value :  1.50040e-05
 Reference value :  1.50053e-05
 Reference value :  1.50073e-05
 Reference value :  1.50093e-05
 Reference value :  1.50112e-05
 Reference value :  1.50136e-05
 Reference value :  1.50309e-05
 Reference value :  1.51670e-05
 Reference value :  1.52501e-05
 Reference value :  1.52502e-05
 Reference value :  1.52504e-05
 Reference value :  1.52515e-05
 Reference value :  1.52526e-05
 Reference value :  1.52547e-05
 Reference value :  1.52570e-05
 Reference value :  1.52620e-05
 Reference value :  1.52821e-05
 Reference value :  1.54779e-05
 Reference value :  1.55004e-05
 Reference value :  1.55016e-05
 Reference value :  1.55024e-05
 Reference value :  1.55035e-05
 Reference value :  1.55047e-05
 Reference value :  1.55059e-05
 Reference value :  1.55080e-05
 Reference value :  1.55126e-05
 Reference value :  1.55141e-05
 Reference value :  1.55166e-05
 Reference value :  1.55189e-05
 Reference value :  1.55214e-05
 Reference value :  1.55281e-05
 Reference value :  1.55846e-05
 Reference value :  1.57501e-05
 Reference value :  1.57502e-05
 Reference value :  1.57503e-05
 Reference value :  1.57507e-05
 Reference value :  1.57520e-05
 Reference value :  1.57541e-05
 Reference value :  1.57554e-05
 Reference value :  1.57579e-05
 Reference value :  1.57652e-05
 Reference value :  1.58304e-05
 Reference value :  1.60000e-05
 Reference value :  1.60002e-05
 Reference value :  1.60009e-05
 Reference value :  1.60022e-05
 Reference value :  1.60040e-05
 Reference value :  1.60053e-05
 Reference value :  1.60083e-05
 Reference value :  1.60102e-05
 Reference value :  1.60136e-05
 Reference value :  1.60504e-05
 Reference value :  1.62501e-05
 Reference value :  1.62502e-05
 Reference value :  1.62507e-05
 Reference value :  1.62520e-05
 Reference value :  1.62541e-05
 Reference value :  1.62561e-05
 Reference value :  1.62596e-05
 Reference value :  1.63302e-05
 Reference value :  1.65000e-05
 Reference value :  1.65002e-05
 Reference value :  1.65009e-05
 Reference value :  1.65018e-05
 Reference value :  1.65028e-05
 Reference value :  1.65046e-05
 Reference value :  1.65058e-05
 Reference value :  1.65071e-05
 Reference value :  1.65100e-05
 Reference value :  1.65233e-05
 Reference value :  1.66551e-05
 Reference value :  1.67502e-05
 Reference value :  1.67503e-05
 Reference value :  1.67507e-05
 Reference value :  1.67520e-05
 Reference value :  1.67542e-05
 Reference value :  1.67572e-05
 Reference value :  1.67628e-05
 Reference value :  1.68156e-05
 Reference value :  1.70000e-05
 Reference value :  1.70000e-05
 Reference value :  1.70000e-05
 Reference value :  1.70000e-05
 Reference value :  1.70001e-05
 Reference value :  1.70001e-05
 Reference value :  1.70003e-05
 Reference value :  1.70013e-05
 Reference value :  1.70024e-05
 Reference value :  1.70037e-05
 Reference value :  1.70051e-05
 Reference value :  1.70063e-05
 Reference value :  1.70113e-05
 Reference value :  1.70288e-05
 Reference value :  1.70337e-05
 Reference value :  1.70374e-05
 Reference value :  1.70438e-05
 Reference value :  1.70477e-05
 Reference value :  1.70500e-05
 Reference value :  1.70560e-05
 Reference value :  1.70671e-05
 Reference value :  1.70866e-05
 Reference value :  1.71007e-05
 Reference value :  1.71100e-05
 Reference value :  1.71183e-05
 Reference value :  1.71286e-05
 Reference value :  1.71489e-05
 Reference value :  1.72211e-05
 Reference value :  1.72501e-05
 Reference value :  1.72502e-05
 Reference value :  1.72503e-05
 Reference value :  1.72511e-05
 Reference value :  1.72520e-05
 Reference value :  1.72540e-05
 Reference value :  1.72546e-05
 Reference value :  1.72560e-05
 Reference value :  1.72580e-05
 Reference value :  1.72657e-05
 Reference value :  1.73334e-05
 Reference value :  1.75000e-05
 Reference value :  1.75001e-05
 Reference value :  1.75002e-05
 Reference value :  1.75009e-05
 Reference value :  1.75018e-05
 Reference value :  1.75027e-05
 Reference value :  1.75041e-05
 Reference value :  1.75056e-05
 Reference value :  1.75100e-05
 Reference value :  1.75113e-05
 Reference value :  1.75144e-05
 Reference value :  1.75160e-05
 Reference value :  1.75198e-05
 Reference value :  1.75319e-05
 Reference value :  1.76669e-05
 Reference value :  1.77501e-05
 Reference value :  1.77502e-05
 Reference value :  1.77503e-05
 Reference value :  1.77511e-05
 Reference value :  1.77520e-05
 Reference value :  1.77533e-05
 Reference value :  1.77547e-05
 Reference value :  1.77570e-05
 Reference value :  1.77599e-05
 Reference value :  1.77651e-05
 Reference value :  1.77899e-05
 Reference value :  1.79018e-05
 Reference value :  1.80005e-05
 Reference value :  1.80021e-05
 Reference value :  1.80034e-05
 Reference value :  1.80046e-05
 Reference value :  1.80058e-05
 Reference value :  1.80072e-05
 Reference value :  1.80091e-05
 Reference value :  1.80115e-05
 Reference value :  1.80138e-05
 Reference value :  1.80162e-05
 Reference value :  1.80186e-05
 Reference value :  1.80212e-05
 Reference value :  1.80279e-05
 Reference value :  1.80884e-05
 Reference value :  1.82501e-05
 Reference value :  1.82502e-05
 Reference value :  1.82503e-05
 Reference value :  1.82507e-05
 Reference value :  1.82520e-05
 Reference value :  1.82540e-05
 Reference value :  1.82553e-05
 Reference value :  1.82568e-05
 Reference value :  1.82615e-05
 Reference value :  1.82977e-05
 Reference value :  1.85000e-05
 Reference value :  1.85001e-05
 Reference value :  1.85002e-05
 Reference value :  1.85005e-05
 Reference value :  1.85013e-05
 Reference value :  1.85022e-05
 Reference value :  1.85041e-05
 Reference value :  1.85056e-05
 Reference value :  1.85075e-05
 Reference value :  1.85095e-05
 Reference value :  1.85128e-05
 Reference value :  1.85208e-05
 Reference value :  1.86145e-05
 Reference value :  1.87501e-05
 Reference value :  1.87502e-05
 Reference value :  1.87503e-05
 Reference value :  1.87507e-05
 Reference value :  1.87520e-05
 Reference value :  1.87540e-05
 Reference value :  1.87553e-05
 Reference value :  1.87569e-05
 Reference value :  1.87599e-05
 Reference value :  1.87654e-05
 Reference value :  1.87837e-05
 Reference value :  1.88573e-05
 Reference value :  1.90000e-05
 Reference value :  1.90001e-05
 Reference value :  1.90002e-05
 Reference value :  1.90005e-05
 Reference value :  1.90013e-05
 Reference value :  1.90022e-05
 Reference value :  1.90034e-05
 Reference value :  1.90046e-05
 Reference value :  1.90058e-05
 Reference value :  1.90064e-05
 Reference value :  1.90080e-05
 Reference value :  1.90115e-05
 Reference value :  1.90138e-05
 Reference value :  1.90161e-05
 Reference value :  1.90183e-05
 Reference value :  1.90208e-05
 Reference value :  1.90308e-05
 Reference value :  1.91025e-05
 Reference value :  1.92501e-05
 Reference value :  1.92502e-05
 Reference value :  1.92503e-05
 Reference value :  1.92511e-05
 Reference value :  1.92520e-05
 Reference value :  1.92540e-05
 Reference value :  1.92553e-05
 Reference value :  1.92568e-05
 Reference value :  1.92616e-05
 Reference value :  1.92809e-05
 Reference value :  1.94851e-05
 Reference value :  1.95003e-05
 Reference value :  1.95011e-05
 Reference value :  1.95017e-05
 Reference value :  1.95033e-05
 Reference value :  1.95056e-05
 Reference value :  1.95076e-05
 Reference value :  1.95096e-05
 Reference value :  1.95131e-05
 Reference value :  1.95395e-05
 Reference value :  1.97501e-05
 Reference value :  1.97502e-05
 Reference value :  1.97503e-05
 Reference value :  1.97507e-05
 Reference value :  1.97520e-05
 Reference value :  1.97540e-05
 Reference value :  1.97553e-05
 Reference value :  1.97568e-05
 Reference value :  1.97587e-05
 Reference value :  1.97631e-05
 Reference value :  1.97836e-05
 Reference value :  1.99189e-05
 Reference value :  2.00001e-05
 Reference value :  2.00002e-05
 Reference value :  2.00005e-05
 Reference value :  2.00013e-05
 Reference value :  2.00022e-05
 Reference value :  2.00040e-05
 Reference value :  2.00052e-05
 Reference value :  2.00064e-05
 Reference value :  2.00090e-05
 Reference value :  2.00115e-05
 Reference value :  2.00138e-05
 Reference value :  2.00161e-05
 Reference value :  2.00184e-05
 Reference value :  2.00209e-05
 Reference value :  2.00244e-05
 Reference value :  2.00396e-05
 Reference value :  2.00729e-05
 Reference value :  2.01242e-05
 Reference value :  2.01472e-05
 Reference value :  2.01726e-05
 Reference value :  2.01844e-05
 Reference value :  2.02086e-05
 Reference value :  2.02501e-05
 Reference value :  2.02502e-05
 Reference value :  2.02503e-05
 Reference value :  2.02507e-05
 Reference value :  2.02515e-05
 Reference value :  2.02520e-05
 Reference value :  2.02533e-05
 Reference value :  2.02546e-05
 Reference value :  2.02568e-05
 Reference value :  2.02616e-05
 Reference value :  2.02811e-05
 Reference value :  2.03865e-05
 Reference value :  2.04562e-05
 Reference value :  2.05008e-05
 Reference value :  2.05033e-05
 Reference value :  2.05049e-05
 Reference value :  2.05076e-05
 Reference value :  2.05107e-05
 Reference value :  2.05145e-05
 Reference value :  2.05378e-05
 Reference value :  2.05705e-05
 Reference value :  2.07212e-05
 Reference value :  2.07502e-05
 Reference value :  2.07503e-05
 Reference value :  2.07511e-05
 Reference value :  2.07526e-05
 Reference value :  2.07547e-05
 Reference value :  2.07570e-05
 Reference value :  2.07600e-05
 Reference value :  2.07751e-05
 Reference value :  2.08567e-05
 Reference value :  2.10000e-05
 Reference value :  2.10001e-05
 Reference value :  2.10003e-05
 Reference value :  2.10018e-05
 Reference value :  2.10028e-05
 Reference value :  2.10046e-05
 Reference value :  2.10058e-05
 Reference value :  2.10071e-05
 Reference value :  2.10105e-05
 Reference value :  2.10115e-05
 Reference value :  2.10138e-05
 Reference value :  2.10162e-05
 Reference value :  2.10185e-05
 Reference value :  2.10211e-05
 Reference value :  2.10276e-05
 Reference value :  2.10315e-05
 Reference value :  2.10407e-05
 Reference value :  2.10525e-05
 Reference value :  2.10844e-05
 Reference value :  2.11559e-05
 Reference value :  2.12501e-05
 Reference value :  2.12502e-05
 Reference value :  2.12504e-05
 Reference value :  2.12515e-05
 Reference value :  2.12533e-05
 Reference value :  2.12553e-05
 Reference value :  2.12569e-05
 Reference value :  2.12617e-05
 Reference value :  2.12983e-05
 Reference value :  2.15000e-05
 Reference value :  2.15001e-05
 Reference value :  2.15002e-05
 Reference value :  2.15009e-05
 Reference value :  2.15018e-05
 Reference value :  2.15028e-05
 Reference value :  2.15046e-05
 Reference value :  2.15063e-05
 Reference value :  2.15083e-05
 Reference value :  2.15102e-05
 Reference value :  2.15124e-05
 Reference value :  2.15309e-05
 Reference value :  2.17501e-05
 Reference value :  2.17502e-05
 Reference value :  2.17502e-05
 Reference value :  2.17503e-05
 Reference value :  2.17507e-05
 Reference value :  2.17515e-05
 Reference value :  2.17526e-05
 Reference value :  2.17547e-05
 Reference value :  2.17579e-05
 Reference value :  2.17821e-05
 Reference value :  2.20004e-05
 Reference value :  2.20016e-05
 Reference value :  2.20029e-05
 Reference value :  2.20047e-05
 Reference value :  2.20059e-05
 Reference value :  2.20091e-05
 Reference value :  2.20141e-05
 Reference value :  2.20166e-05
 Reference value :  2.20189e-05
 Reference value :  2.20231e-05
 Reference value :  2.20424e-05
 Reference value :  2.21244e-05
 Reference value :  2.22501e-05
 Reference value :  2.22502e-05
 Reference value :  2.22503e-05
 Reference value :  2.22511e-05
 Reference value :  2.22520e-05
 Reference value :  2.22541e-05
 Reference value :  2.22554e-05
 Reference value :  2.22569e-05
 Reference value :  2.22618e-05
 Reference value :  2.22814e-05
 Reference value :  2.23845e-05
 Reference value :  2.25000e-05
 Reference value :  2.25001e-05
 Reference value :  2.25002e-05
 Reference value :  2.25009e-05
 Reference value :  2.25018e-05
 Reference value :  2.25028e-05
 Reference value :  2.25046e-05
 Reference value :  2.25063e-05
 Reference value :  2.25083e-05
 Reference value :  2.25102e-05
 Reference value :  2.25124e-05
 Reference value :  2.25310e-05
 Reference value :  2.26670e-05
 Reference value :  2.27501e-05
 Reference value :  2.27502e-05
 Reference value :  2.27503e-05
 Reference value :  2.27507e-05
 Reference value :  2.27520e-05
 Reference value :  2.27533e-05
 Reference value :  2.27547e-05
 Reference value :  2.27570e-05
 Reference value :  2.27654e-05
 Reference value :  2.28301e-05
 Reference value :  2.30004e-05
 Reference value :  2.30016e-05
 Reference value :  2.30025e-05
 Reference value :  2.30037e-05
 Reference value :  2.30050e-05
 Reference value :  2.30065e-05
 Reference value :  2.30093e-05
 Reference value :  2.30109e-05
 Reference value :  2.30143e-05
 Reference value :  2.30155e-05
 Reference value :  2.30180e-05
 Reference value :  2.30203e-05
 Reference value :  2.30254e-05
 Reference value :  2.30553e-05
 Reference value :  2.32242e-05
 Reference value :  2.32502e-05
 Reference value :  2.32503e-05
 Reference value :  2.32507e-05
 Reference value :  2.32520e-05
 Reference value :  2.32541e-05
 Reference value :  2.32554e-05
 Reference value :  2.32569e-05
 Reference value :  2.32618e-05
 Reference value :  2.32987e-05
 Reference value :  2.35000e-05
 Reference value :  2.35001e-05
 Reference value :  2.35002e-05
 Reference value :  2.35005e-05
 Reference value :  2.35013e-05
 Reference value :  2.35022e-05
 Reference value :  2.35040e-05
 Reference value :  2.35053e-05
 Reference value :  2.35073e-05
 Reference value :  2.35093e-05
 Reference value :  2.35112e-05
 Reference value :  2.35162e-05
 Reference value :  2.35894e-05
 Reference value :  2.37501e-05
 Reference value :  2.37502e-05
 Reference value :  2.37504e-05
 Reference value :  2.37515e-05
 Reference value :  2.37526e-05
 Reference value :  2.37541e-05
 Reference value :  2.37554e-05
 Reference value :  2.37569e-05
 Reference value :  2.37619e-05
 Reference value :  2.37990e-05
 Reference value :  2.40000e-05
 Reference value :  2.40001e-05
 Reference value :  2.40001e-05
 Reference value :  2.40003e-05
 Reference value :  2.40013e-05
 Reference value :  2.40022e-05
 Reference value :  2.40034e-05
 Reference value :  2.40046e-05
 Reference value :  2.40058e-05
 Reference value :  2.40064e-05
 Reference value :  2.40090e-05
 Reference value :  2.40140e-05
 Reference value :  2.40167e-05
 Reference value :  2.40191e-05
 Reference value :  2.40216e-05
 Reference value :  2.40339e-05
 Reference value :  2.42501e-05
 Reference value :  2.42502e-05
 Reference value :  2.42503e-05
 Reference value :  2.42511e-05
 Reference value :  2.42520e-05
 Reference value :  2.42533e-05
 Reference value :  2.42553e-05
 Reference value :  2.42569e-05
 Reference value :  2.42617e-05
 Reference value :  2.42985e-05
 Reference value :  2.45000e-05
 Reference value :  2.45001e-05
 Reference value :  2.45005e-05
 Reference value :  2.45022e-05
 Reference value :  2.45040e-05
 Reference value :  2.45053e-05
 Reference value :  2.45073e-05
 Reference value :  2.45093e-05
 Reference value :  2.45112e-05
 Reference value :  2.45162e-05
 Reference value :  2.45504e-05
 Reference value :  2.47501e-05
 Reference value :  2.47502e-05
 Reference value :  2.47502e-05
 Reference value :  2.47504e-05
 Reference value :  2.47515e-05
 Reference value :  2.47526e-05
 Reference value :  2.47541e-05
 Reference value :  2.47554e-05
 Reference value :  2.47579e-05
 Reference value :  2.47715e-05
 Reference value :  2.48847e-05
 Reference value :  2.50000e-05
 Reference value :  2.50001e-05
 Reference value :  2.50002e-05
 Reference value :  2.50009e-05
 Reference value :  2.50018e-05
 Reference value :  2.50028e-05
 Reference value :  2.50040e-05
 Reference value :  2.50046e-05
 Reference value :  2.50058e-05
 Reference value :  2.50071e-05
 Reference value :  2.50090e-05
 Reference value :  2.50111e-05
 Reference value :  2.50179e-05
 Reference value :  2.50853e-05
 Reference value :  2.52501e-05
 Reference value :  2.52502e-05
 Reference value :  2.52503e-05
 Reference value :  2.52507e-05
 Reference value :  2.52515e-05
 Reference value :  2.52525e-05
 Reference value :  2.52542e-05
 Reference value :  2.52585e-05
 Reference value :  2.52662e-05
 Reference value :  2.52939e-05
 Reference value :  2.54332e-05
 Reference value :  2.55000e-05
 Reference value :  2.55000e-05
 Reference value :  2.55000e-05
 Reference value :  2.55001e-05
 Reference value :  2.55001e-05
 Reference value :  2.55004e-05
 Reference value :  2.55019e-05
 Reference value :  2.55037e-05
 Reference value :  2.55051e-05
 Reference value :  2.55063e-05
 Reference value :  2.55079e-05
 Reference value :  2.55221e-05
 Reference value :  2.55288e-05
 Reference value :  2.55337e-05
 Reference value :  2.55411e-05
 Reference value :  2.55477e-05
 Reference value :  2.55565e-05
 Reference value :  2.55879e-05
 Reference value :  2.56027e-05
 Reference value :  2.56176e-05
 Reference value :  2.56394e-05
 Reference value :  2.57501e-05
 Reference value :  2.57503e-05
 Reference value :  2.57515e-05
 Reference value :  2.57533e-05
 Reference value :  2.57553e-05
 Reference value :  2.57598e-05
 Reference value :  2.58012e-05
 Reference value :  2.60000e-05
 Reference value :  2.60002e-05
 Reference value :  2.60009e-05
 Reference value :  2.60022e-05
 Reference value :  2.60041e-05
 Reference value :  2.60067e-05
 Reference value :  2.60113e-05
 Reference value :  2.60144e-05
 Reference value :  2.60176e-05
 Reference value :  2.60220e-05
 Reference value :  2.61670e-05
 Reference value :  2.62502e-05
 Reference value :  2.62503e-05
 Reference value :  2.62515e-05
 Reference value :  2.62533e-05
 Reference value :  2.62547e-05
 Reference value :  2.62570e-05
 Reference value :  2.62599e-05
 Reference value :  2.62686e-05
 Reference value :  2.63253e-05
 Reference value :  2.65005e-05
 Reference value :  2.65021e-05
 Reference value :  2.65040e-05
 Reference value :  2.65052e-05
 Reference value :  2.65065e-05
 Reference value :  2.65091e-05
 Reference value :  2.65115e-05
 Reference value :  2.65138e-05
 Reference value :  2.65162e-05
 Reference value :  2.65198e-05
 Reference value :  2.65279e-05
 Reference value :  2.65885e-05
 Reference value :  2.67501e-05
 Reference value :  2.67502e-05
 Reference value :  2.67504e-05
 Reference value :  2.67515e-05
 Reference value :  2.67520e-05
 Reference value :  2.67532e-05
 Reference value :  2.67546e-05
 Reference value :  2.67568e-05
 Reference value :  2.67615e-05
 Reference value :  2.67977e-05
 Reference value :  2.70000e-05
 Reference value :  2.70001e-05
 Reference value :  2.70002e-05
 Reference value :  2.70013e-05
 Reference value :  2.70022e-05
 Reference value :  2.70041e-05
 Reference value :  2.70067e-05
 Reference value :  2.70084e-05
 Reference value :  2.70116e-05
 Reference value :  2.70208e-05
 Reference value :  2.72113e-05
 Reference value :  2.72502e-05
 Reference value :  2.72503e-05
 Reference value :  2.72515e-05
 Reference value :  2.72533e-05
 Reference value :  2.72546e-05
 Reference value :  2.72569e-05
 Reference value :  2.72612e-05
 Reference value :  2.72751e-05
 Reference value :  2.75000e-05
 Reference value :  2.75001e-05
 Reference value :  2.75002e-05
 Reference value :  2.75013e-05
 Reference value :  2.75028e-05
 Reference value :  2.75046e-05
 Reference value :  2.75058e-05
 Reference value :  2.75080e-05
 Reference value :  2.75115e-05
 Reference value :  2.75138e-05
 Reference value :  2.75161e-05
 Reference value :  2.75183e-05
 Reference value :  2.75208e-05
 Reference value :  2.75243e-05
 Reference value :  2.75381e-05
 Reference value :  2.76025e-05
 Reference value :  2.77501e-05
 Reference value :  2.77502e-05
 Reference value :  2.77503e-05
 Reference value :  2.77511e-05
 Reference value :  2.77533e-05
 Reference value :  2.77546e-05
 Reference value :  2.77568e-05
 Reference value :  2.77616e-05
 Reference value :  2.77980e-05
 Reference value :  2.80003e-05
 Reference value :  2.80011e-05
 Reference value :  2.80017e-05
 Reference value :  2.80033e-05
 Reference value :  2.80049e-05
 Reference value :  2.80067e-05
 Reference value :  2.80076e-05
 Reference value :  2.80096e-05
 Reference value :  2.80118e-05
 Reference value :  2.80131e-05
 Reference value :  2.80208e-05
 Reference value :  2.80645e-05
 Reference value :  2.82501e-05
 Reference value :  2.82502e-05
 Reference value :  2.82503e-05
 Reference value :  2.82507e-05
 Reference value :  2.82520e-05
 Reference value :  2.82540e-05
 Reference value :  2.82553e-05
 Reference value :  2.82578e-05
 Reference value :  2.82631e-05
 Reference value :  2.82987e-05
 Reference value :  2.85000e-05
 Reference value :  2.85002e-05
 Reference value :  2.85009e-05
 Reference value :  2.85022e-05
 Reference value :  2.85046e-05
 Reference value :  2.85058e-05
 Reference value :  2.85071e-05
 Reference value :  2.85105e-05
 Reference value :  2.85126e-05
 Reference value :  2.85151e-05
 Reference value :  2.85172e-05
 Reference value :  2.85196e-05
 Reference value :  2.85223e-05
 Reference value :  2.85396e-05
 Reference value :  2.85925e-05
 Reference value :  2.86418e-05
 Reference value :  2.86621e-05
 Reference value :  2.86724e-05
 Reference value :  2.87270e-05
 Reference value :  2.87502e-05
 Reference value :  2.87503e-05
 Reference value :  2.87511e-05
 Reference value :  2.87520e-05
 Reference value :  2.87540e-05
 Reference value :  2.87553e-05
 Reference value :  2.87578e-05
 Reference value :  2.87705e-05
 Reference value :  2.89986e-05
 Reference value :  2.90000e-05
 Reference value :  2.90002e-05
 Reference value :  2.90008e-05
 Reference value :  2.90017e-05
 Reference value :  2.90026e-05
 Reference value :  2.90045e-05
 Reference value :  2.90074e-05
 Reference value :  2.90107e-05
 Reference value :  2.90173e-05
 Reference value :  2.90561e-05
 Reference value :  2.92308e-05
 Reference value :  2.92501e-05
 Reference value :  2.92502e-05
 Reference value :  2.92504e-05
 Reference value :  2.92515e-05
 Reference value :  2.92533e-05
 Reference value :  2.92547e-05
 Reference value :  2.92569e-05
 Reference value :  2.92653e-05
 Reference value :  2.93134e-05
 Reference value :  2.93780e-05
 Reference value :  2.94168e-05
 Reference value :  2.94892e-05
 Reference value :  2.95001e-05
 Reference value :  2.95001e-05
 Reference value :  2.95005e-05
 Reference value :  2.95013e-05
 Reference value :  2.95022e-05
 Reference value :  2.95040e-05
 Reference value :  2.95046e-05
 Reference value :  2.95059e-05
 Reference value :  2.95072e-05
 Reference value :  2.95105e-05
 Reference value :  2.95127e-05
 Reference value :  2.95151e-05
 Reference value :  2.95174e-05
 Reference value :  2.95185e-05
 Reference value :  2.95207e-05
 Reference value :  2.95255e-05
 Reference value :  2.95481e-05
 Reference value :  2.95796e-05
 Reference value :  2.96093e-05
 Reference value :  2.97051e-05
 Reference value :  2.97501e-05
 Reference value :  2.97502e-05
 Reference value :  2.97503e-05
 Reference value :  2.97511e-05
 Reference value :  2.97520e-05
 Reference value :  2.97541e-05
 Reference value :  2.97554e-05
 Reference value :  2.97569e-05
 Reference value :  2.97618e-05
 Reference value :  2.97988e-05
 Reference value :  3.00000e-05
 Reference value :  3.00001e-05
 Reference value :  3.00001e-05
 Reference value :  3.00003e-05
 Reference value :  3.00013e-05
 Reference value :  3.00022e-05
 Reference value :  3.00040e-05
 Reference value :  3.00053e-05
 Reference value :  3.00073e-05
 Reference value :  3.00092e-05
 Reference value :  3.00112e-05
 Reference value :  3.00162e-05
 Reference value :  3.00503e-05
 Reference value :  3.02501e-05
 Reference value :  3.02501e-05
 Reference value :  3.02502e-05
 Reference value :  3.02503e-05
 Reference value :  3.02507e-05
 Reference value :  3.02515e-05
 Reference value :  3.02520e-05
 Reference value :  3.02533e-05
 Reference value :  3.02547e-05
 Reference value :  3.02561e-05
 Reference value :  3.02597e-05
 Reference value :  3.02715e-05
 Reference value :  3.03847e-05
 Reference value :  3.05004e-05
 Reference value :  3.05016e-05
 Reference value :  3.05024e-05
 Reference value :  3.05035e-05
 Reference value :  3.05047e-05
 Reference value :  3.05059e-05
 Reference value :  3.05080e-05
 Reference value :  3.05126e-05
 Reference value :  3.05154e-05
 Reference value :  3.05189e-05
 Reference value :  3.05231e-05
 Reference value :  3.05424e-05
 Reference value :  3.06243e-05
 Reference value :  3.07501e-05
 Reference value :  3.07502e-05
 Reference value :  3.07504e-05
 Reference value :  3.07515e-05
 Reference value :  3.07526e-05
 Reference value :  3.07541e-05
 Reference value :  3.07554e-05
 Reference value :  3.07569e-05
 Reference value :  3.07618e-05
 Reference value :  3.07987e-05
 Reference value :  3.09800e-05
 Reference value :  3.10000e-05
 Reference value :  3.10001e-05
 Reference value :  3.10002e-05
 Reference value :  3.10009e-05
 Reference value :  3.10018e-05
 Reference value :  3.10022e-05
 Reference value :  3.10034e-05
 Reference value :  3.10046e-05
 Reference value :  3.10063e-05
 Reference value :  3.10073e-05
 Reference value :  3.10093e-05
 Reference value :  3.10102e-05
 Reference value :  3.10124e-05
 Reference value :  3.10310e-05
 Reference value :  3.12501e-05
 Reference value :  3.12502e-05
 Reference value :  3.12503e-05
 Reference value :  3.12507e-05
 Reference value :  3.12520e-05
 Reference value :  3.12533e-05
 Reference value :  3.12547e-05
 Reference value :  3.12570e-05
 Reference value :  3.12619e-05
 Reference value :  3.12990e-05
 Reference value :  3.15000e-05
 Reference value :  3.15001e-05
 Reference value :  3.15002e-05
 Reference value :  3.15013e-05
 Reference value :  3.15028e-05
 Reference value :  3.15046e-05
 Reference value :  3.15058e-05
 Reference value :  3.15080e-05
 Reference value :  3.15126e-05
 Reference value :  3.15140e-05
 Reference value :  3.15154e-05
 Reference value :  3.15179e-05
 Reference value :  3.15203e-05
 Reference value :  3.15285e-05
 Reference value :  3.15893e-05
 Reference value :  3.17501e-05
 Reference value :  3.17502e-05
 Reference value :  3.17507e-05
 Reference value :  3.17526e-05
 Reference value :  3.17547e-05
 Reference value :  3.17579e-05
 Reference value :  3.17990e-05
 Reference value :  3.20000e-05
 Reference value :  3.20002e-05
 Reference value :  3.20013e-05
 Reference value :  3.20028e-05
 Reference value :  3.20046e-05
 Reference value :  3.20073e-05
 Reference value :  3.20102e-05
 Reference value :  3.20136e-05
 Reference value :  3.20504e-05
 Reference value :  3.22501e-05
 Reference value :  3.22502e-05
 Reference value :  3.22503e-05
 Reference value :  3.22511e-05
 Reference value :  3.22520e-05
 Reference value :  3.22533e-05
 Reference value :  3.22547e-05
 Reference value :  3.22561e-05
 Reference value :  3.22597e-05
 Reference value :  3.22821e-05
 Reference value :  3.24779e-05
 Reference value :  3.25001e-05
 Reference value :  3.25001e-05
 Reference value :  3.25005e-05
 Reference value :  3.25013e-05
 Reference value :  3.25022e-05
 Reference value :  3.25040e-05
 Reference value :  3.25046e-05
 Reference value :  3.25058e-05
 Reference value :  3.25071e-05
 Reference value :  3.25106e-05
 Reference value :  3.25140e-05
 Reference value :  3.25167e-05
 Reference value :  3.25191e-05
 Reference value :  3.25233e-05
 Reference value :  3.25424e-05
 Reference value :  3.27147e-05
 Reference value :  3.27502e-05
 Reference value :  3.27503e-05
 Reference value :  3.27511e-05
 Reference value :  3.27520e-05
 Reference value :  3.27540e-05
 Reference value :  3.27553e-05
 Reference value :  3.27569e-05
 Reference value :  3.27651e-05
 Reference value :  3.28305e-05
 Reference value :  3.30000e-05
 Reference value :  3.30001e-05
 Reference value :  3.30003e-05
 Reference value :  3.30013e-05
 Reference value :  3.30022e-05
 Reference value :  3.30040e-05
 Reference value :  3.30053e-05
 Reference value :  3.30083e-05
 Reference value :  3.30112e-05
 Reference value :  3.30212e-05
 Reference value :  3.32501e-05
 Reference value :  3.32502e-05
 Reference value :  3.32503e-05
 Reference value :  3.32515e-05
 Reference value :  3.32526e-05
 Reference value :  3.32541e-05
 Reference value :  3.32554e-05
 Reference value :  3.32579e-05
 Reference value :  3.32655e-05
 Reference value :  3.33310e-05
 Reference value :  3.35000e-05
 Reference value :  3.35004e-05
 Reference value :  3.35015e-05
 Reference value :  3.35024e-05
 Reference value :  3.35034e-05
 Reference value :  3.35046e-05
 Reference value :  3.35058e-05
 Reference value :  3.35080e-05
 Reference value :  3.35098e-05
 Reference value :  3.35189e-05
 Reference value :  3.36437e-05
 Reference value :  3.37501e-05
 Reference value :  3.37502e-05
 Reference value :  3.37503e-05
 Reference value :  3.37507e-05
 Reference value :  3.37515e-05
 Reference value :  3.37520e-05
 Reference value :  3.37532e-05
 Reference value :  3.37551e-05
 Reference value :  3.37603e-05
 Reference value :  3.37805e-05
 Reference value :  3.39339e-05
 Reference value :  3.40000e-05
 Reference value :  3.40000e-05
 Reference value :  3.40000e-05
 Reference value :  3.40000e-05
 Reference value :  3.40001e-05
 Reference value :  3.40001e-05
 Reference value :  3.40004e-05
 Reference value :  3.40019e-05
 Reference value :  3.40024e-05
 Reference value :  3.40037e-05
 Reference value :  3.40051e-05
 Reference value :  3.40057e-05
 Reference value :  3.40071e-05
 Reference value :  3.40094e-05
 Reference value :  3.40151e-05
 Reference value :  3.40288e-05
 Reference value :  3.40337e-05
 Reference value :  3.40374e-05
 Reference value :  3.40438e-05
 Reference value :  3.40477e-05
 Reference value :  3.40519e-05
 Reference value :  3.40640e-05
 Reference value :  3.40905e-05
 Reference value :  3.41072e-05
 Reference value :  3.41181e-05
 Reference value :  3.41270e-05
 Reference value :  3.41376e-05
 Reference value :  3.41579e-05
 Reference value :  3.42501e-05
 Reference value :  3.42502e-05
 Reference value :  3.42503e-05
 Reference value :  3.42511e-05
 Reference value :  3.42520e-05
 Reference value :  3.42540e-05
 Reference value :  3.42553e-05
 Reference value :  3.42580e-05
 Reference value :  3.42657e-05
 Reference value :  3.43012e-05
 Reference value :  3.45000e-05
 Reference value :  3.45001e-05
 Reference value :  3.45002e-05
 Reference value :  3.45005e-05
 Reference value :  3.45013e-05
 Reference value :  3.45022e-05
 Reference value :  3.45041e-05
 Reference value :  3.45056e-05
 Reference value :  3.45100e-05
 Reference value :  3.45128e-05
 Reference value :  3.45160e-05
 Reference value :  3.45220e-05
 Reference value :  3.45594e-05
 Reference value :  3.47501e-05
 Reference value :  3.47502e-05
 Reference value :  3.47503e-05
 Reference value :  3.47511e-05
 Reference value :  3.47520e-05
 Reference value :  3.47540e-05
 Reference value :  3.47547e-05
 Reference value :  3.47570e-05
 Reference value :  3.47599e-05
 Reference value :  3.47651e-05
 Reference value :  3.47799e-05
 Reference value :  3.48253e-05
 Reference value :  3.49694e-05
 Reference value :  3.50000e-05
 Reference value :  3.50001e-05
 Reference value :  3.50002e-05
 Reference value :  3.50009e-05
 Reference value :  3.50018e-05
 Reference value :  3.50028e-05
 Reference value :  3.50040e-05
 Reference value :  3.50046e-05
 Reference value :  3.50058e-05
 Reference value :  3.50071e-05
 Reference value :  3.50090e-05
 Reference value :  3.50114e-05
 Reference value :  3.50138e-05
 Reference value :  3.50161e-05
 Reference value :  3.50183e-05
 Reference value :  3.50208e-05
 Reference value :  3.50240e-05
 Reference value :  3.50365e-05
 Reference value :  3.51571e-05
 Reference value :  3.52501e-05
 Reference value :  3.52502e-05
 Reference value :  3.52503e-05
 Reference value :  3.52507e-05
 Reference value :  3.52520e-05
 Reference value :  3.52533e-05
 Reference value :  3.52546e-05
 Reference value :  3.52568e-05
 Reference value :  3.52616e-05
 Reference value :  3.52980e-05
 Reference value :  3.55000e-05
 Reference value :  3.55000e-05
 Reference value :  3.55001e-05
 Reference value :  3.55001e-05
 Reference value :  3.55004e-05
 Reference value :  3.55016e-05
 Reference value :  3.55025e-05
 Reference value :  3.55036e-05
 Reference value :  3.55050e-05
 Reference value :  3.55069e-05
 Reference value :  3.55085e-05
 Reference value :  3.55095e-05
 Reference value :  3.55116e-05
 Reference value :  3.55129e-05
 Reference value :  3.55204e-05
 Reference value :  3.55554e-05
 Reference value :  3.57501e-05
 Reference value :  3.57502e-05
 Reference value :  3.57503e-05
 Reference value :  3.57511e-05
 Reference value :  3.57520e-05
 Reference value :  3.57533e-05
 Reference value :  3.57547e-05
 Reference value :  3.57561e-05
 Reference value :  3.57579e-05
 Reference value :  3.57599e-05
 Reference value :  3.57654e-05
 Reference value :  3.57972e-05
 Reference value :  3.60000e-05
 Reference value :  3.60017e-05
 Reference value :  3.60050e-05
 Reference value :  3.60067e-05
 Reference value :  3.60098e-05
 Reference value :  3.60129e-05
 Reference value :  3.60142e-05
 Reference value :  3.60167e-05
 Reference value :  3.60190e-05
 Reference value :  3.60232e-05
 Reference value :  3.60451e-05
 Reference value :  3.61328e-05
 Reference value :  3.62501e-05
 Reference value :  3.62501e-05
 Reference value :  3.62502e-05
 Reference value :  3.62503e-05
 Reference value :  3.62507e-05
 Reference value :  3.62515e-05
 Reference value :  3.62526e-05
 Reference value :  3.62540e-05
 Reference value :  3.62553e-05
 Reference value :  3.62568e-05
 Reference value :  3.62617e-05
 Reference value :  3.62811e-05
 Reference value :  3.63864e-05
 Reference value :  3.65000e-05
 Reference value :  3.65001e-05
 Reference value :  3.65002e-05
 Reference value :  3.65005e-05
 Reference value :  3.65013e-05
 Reference value :  3.65022e-05
 Reference value :  3.65041e-05
 Reference value :  3.65067e-05
 Reference value :  3.65075e-05
 Reference value :  3.65095e-05
 Reference value :  3.65116e-05
 Reference value :  3.65141e-05
 Reference value :  3.65208e-05
 Reference value :  3.65661e-05
 Reference value :  3.67501e-05
 Reference value :  3.67502e-05
 Reference value :  3.67502e-05
 Reference value :  3.67504e-05
 Reference value :  3.67511e-05
 Reference value :  3.67520e-05
 Reference value :  3.67533e-05
 Reference value :  3.67546e-05
 Reference value :  3.67569e-05
 Reference value :  3.67588e-05
 Reference value :  3.67632e-05
 Reference value :  3.67838e-05
 Reference value :  3.68576e-05
 Reference value :  3.70000e-05
 Reference value :  3.70001e-05
 Reference value :  3.70002e-05
 Reference value :  3.70005e-05
 Reference value :  3.70013e-05
 Reference value :  3.70022e-05
 Reference value :  3.70040e-05
 Reference value :  3.70046e-05
 Reference value :  3.70058e-05
 Reference value :  3.70064e-05
 Reference value :  3.70080e-05
 Reference value :  3.70115e-05
 Reference value :  3.70138e-05
 Reference value :  3.70163e-05
 Reference value :  3.70185e-05
 Reference value :  3.70211e-05
 Reference value :  3.70278e-05
 Reference value :  3.70535e-05
 Reference value :  3.70946e-05
 Reference value :  3.71195e-05
 Reference value :  3.71410e-05
 Reference value :  3.71597e-05
 Reference value :  3.71676e-05
 Reference value :  3.71844e-05
 Reference value :  3.72501e-05
 Reference value :  3.72502e-05
 Reference value :  3.72502e-05
 Reference value :  3.72504e-05
 Reference value :  3.72511e-05
 Reference value :  3.72520e-05
 Reference value :  3.72533e-05
 Reference value :  3.72546e-05
 Reference value :  3.72560e-05
 Reference value :  3.72577e-05
 Reference value :  3.72650e-05
 Reference value :  3.72982e-05
 Reference value :  3.74985e-05
 Reference value :  3.75000e-05
 Reference value :  3.75001e-05
 Reference value :  3.75001e-05
 Reference value :  3.75002e-05
 Reference value :  3.75005e-05
 Reference value :  3.75013e-05
 Reference value :  3.75022e-05
 Reference value :  3.75034e-05
 Reference value :  3.75046e-05
 Reference value :  3.75063e-05
 Reference value :  3.75083e-05
 Reference value :  3.75102e-05
 Reference value :  3.75124e-05
 Reference value :  3.75309e-05
 Reference value :  3.76667e-05
 Reference value :  3.77501e-05
 Reference value :  3.77502e-05
 Reference value :  3.77503e-05
 Reference value :  3.77511e-05
 Reference value :  3.77520e-05
 Reference value :  3.77533e-05
 Reference value :  3.77547e-05
 Reference value :  3.77561e-05
 Reference value :  3.77579e-05
 Reference value :  3.77655e-05
 Reference value :  3.78310e-05
 Reference value :  3.80000e-05
 Reference value :  3.80001e-05
 Reference value :  3.80001e-05
 Reference value :  3.80003e-05
 Reference value :  3.80013e-05
 Reference value :  3.80022e-05
 Reference value :  3.80040e-05
 Reference value :  3.80046e-05
 Reference value :  3.80058e-05
 Reference value :  3.80071e-05
 Reference value :  3.80106e-05
 Reference value :  3.80140e-05
 Reference value :  3.80154e-05
 Reference value :  3.80180e-05
 Reference value :  3.80191e-05
 Reference value :  3.80216e-05
 Reference value :  3.80253e-05
 Reference value :  3.80339e-05
 Reference value :  3.80398e-05
 Reference value :  3.80481e-05
 Reference value :  3.80647e-05
 Reference value :  3.81043e-05
 Reference value :  3.82501e-05
 Reference value :  3.82502e-05
 Reference value :  3.82504e-05
 Reference value :  3.82515e-05
 Reference value :  3.82525e-05
 Reference value :  3.82546e-05
 Reference value :  3.82569e-05
 Reference value :  3.82652e-05
 Reference value :  3.83863e-05
 Reference value :  3.85001e-05
 Reference value :  3.85001e-05
 Reference value :  3.85005e-05
 Reference value :  3.85018e-05
 Reference value :  3.85033e-05
 Reference value :  3.85056e-05
 Reference value :  3.85075e-05
 Reference value :  3.85106e-05
 Reference value :  3.85142e-05
 Reference value :  3.85413e-05
 Reference value :  3.87501e-05
 Reference value :  3.87502e-05
 Reference value :  3.87511e-05
 Reference value :  3.87525e-05
 Reference value :  3.87546e-05
 Reference value :  3.87588e-05
 Reference value :  3.87751e-05
 Reference value :  3.90000e-05
 Reference value :  3.90002e-05
 Reference value :  3.90013e-05
 Reference value :  3.90034e-05
 Reference value :  3.90052e-05
 Reference value :  3.90071e-05
 Reference value :  3.90115e-05
 Reference value :  3.90151e-05
 Reference value :  3.90185e-05
 Reference value :  3.90212e-05
 Reference value :  3.90336e-05
 Reference value :  3.90628e-05
 Reference value :  3.90950e-05
 Reference value :  3.91633e-05
 Reference value :  3.92501e-05
 Reference value :  3.92503e-05
 Reference value :  3.92511e-05
 Reference value :  3.92520e-05
 Reference value :  3.92540e-05
 Reference value :  3.92553e-05
 Reference value :  3.92595e-05
 Reference value :  3.93301e-05
 Reference value :  3.95001e-05
 Reference value :  3.95003e-05
 Reference value :  3.95013e-05
 Reference value :  3.95027e-05
 Reference value :  3.95049e-05
 Reference value :  3.95075e-05
 Reference value :  3.95106e-05
 Reference value :  3.95128e-05
 Reference value :  3.95208e-05
 Reference value :  3.95661e-05
 Reference value :  3.97501e-05
 Reference value :  3.97502e-05
 Reference value :  3.97502e-05
 Reference value :  3.97503e-05
 Reference value :  3.97507e-05
 Reference value :  3.97520e-05
 Reference value :  3.97540e-05
 Reference value :  3.97553e-05
 Reference value :  3.97569e-05
 Reference value :  3.97588e-05
 Reference value :  3.97612e-05
 Reference value :  3.97654e-05
 Reference value :  3.97837e-05
 Reference value :  3.98211e-05
 Reference value :  4.00000e-05
 Reference value :  4.00000e-05
 Reference value :  4.00001e-05
 Reference value :  4.00002e-05
 Reference value :  4.00003e-05
 Reference value :  4.00009e-05
 Reference value :  4.00013e-05
 Reference value :  4.00022e-05
 Reference value :  4.00034e-05
 Reference value :  4.00046e-05
 Reference value :  4.00058e-05
 Reference value :  4.00071e-05
 Reference value :  4.00090e-05
 Reference value :  4.00115e-05
 Reference value :  4.00138e-05
 Reference value :  4.00162e-05
 Reference value :  4.00185e-05
 Reference value :  4.00212e-05
 Reference value :  4.00278e-05
 Reference value :  4.00423e-05
 Reference value :  4.00912e-05
 Reference value :  4.02501e-05
 Reference value :  4.02502e-05
 Reference value :  4.02503e-05
 Reference value :  4.02507e-05
 Reference value :  4.02520e-05
 Reference value :  4.02533e-05
 Reference value :  4.02546e-05
 Reference value :  4.02560e-05
 Reference value :  4.02577e-05
 Reference value :  4.02703e-05
 Reference value :  4.03868e-05
 Reference value :  4.05000e-05
 Reference value :  4.05001e-05
 Reference value :  4.05005e-05
 Reference value :  4.05022e-05
 Reference value :  4.05049e-05
 Reference value :  4.05075e-05
 Reference value :  4.05095e-05
 Reference value :  4.05128e-05
 Reference value :  4.05208e-05
 Reference value :  4.07501e-05
 Reference value :  4.07502e-05
 Reference value :  4.07507e-05
 Reference value :  4.07520e-05
 Reference value :  4.07540e-05
 Reference value :  4.07560e-05
 Reference value :  4.07599e-05
 Reference value :  4.07837e-05
 Reference value :  4.10013e-05
 Reference value :  4.10053e-05
 Reference value :  4.10088e-05
 Reference value :  4.10125e-05
 Reference value :  4.10149e-05
 Reference value :  4.10176e-05
 Reference value :  4.10208e-05
 Reference value :  4.10283e-05
 Reference value :  4.11265e-05
 Reference value :  4.12502e-05
 Reference value :  4.12503e-05
 Reference value :  4.12515e-05
 Reference value :  4.12532e-05
 Reference value :  4.12553e-05
 Reference value :  4.12594e-05
 Reference value :  4.12979e-05
 Reference value :  4.15000e-05
 Reference value :  4.15001e-05
 Reference value :  4.15003e-05
 Reference value :  4.15013e-05
 Reference value :  4.15022e-05
 Reference value :  4.15041e-05
 Reference value :  4.15056e-05
 Reference value :  4.15075e-05
 Reference value :  4.15095e-05
 Reference value :  4.15116e-05
 Reference value :  4.15141e-05
 Reference value :  4.15420e-05
 Reference value :  4.17130e-05
 Reference value :  4.17501e-05
 Reference value :  4.17502e-05
 Reference value :  4.17503e-05
 Reference value :  4.17504e-05
 Reference value :  4.17510e-05
 Reference value :  4.17520e-05
 Reference value :  4.17533e-05
 Reference value :  4.17546e-05
 Reference value :  4.17570e-05
 Reference value :  4.17600e-05
 Reference value :  4.17655e-05
 Reference value :  4.17840e-05
 Reference value :  4.18586e-05
 Reference value :  4.20000e-05
 Reference value :  4.20001e-05
 Reference value :  4.20002e-05
 Reference value :  4.20005e-05
 Reference value :  4.20013e-05
 Reference value :  4.20022e-05
 Reference value :  4.20040e-05
 Reference value :  4.20046e-05
 Reference value :  4.20058e-05
 Reference value :  4.20064e-05
 Reference value :  4.20080e-05
 Reference value :  4.20100e-05
 Reference value :  4.20117e-05
 Reference value :  4.20139e-05
 Reference value :  4.20172e-05
 Reference value :  4.20194e-05
 Reference value :  4.20414e-05
 Reference value :  4.21337e-05
 Reference value :  4.22501e-05
 Reference value :  4.22502e-05
 Reference value :  4.22503e-05
 Reference value :  4.22511e-05
 Reference value :  4.22526e-05
 Reference value :  4.22561e-05
 Reference value :  4.22723e-05
 Reference value :  4.25000e-05
 Reference value :  4.25000e-05
 Reference value :  4.25000e-05
 Reference value :  4.25001e-05
 Reference value :  4.25001e-05
 Reference value :  4.25008e-05
 Reference value :  4.25024e-05
 Reference value :  4.25037e-05
 Reference value :  4.25051e-05
 Reference value :  4.25063e-05
 Reference value :  4.25094e-05
 Reference value :  4.25221e-05
 Reference value :  4.25291e-05
 Reference value :  4.25342e-05
 Reference value :  4.25418e-05
 Reference value :  4.25473e-05
 Reference value :  4.25574e-05
 Reference value :  4.25820e-05
 Reference value :  4.26593e-05
 Reference value :  4.27501e-05
 Reference value :  4.27503e-05
 Reference value :  4.27511e-05
 Reference value :  4.27520e-05
 Reference value :  4.27540e-05
 Reference value :  4.27560e-05
 Reference value :  4.27596e-05
 Reference value :  4.27817e-05
 Reference value :  4.29911e-05
 Reference value :  4.30000e-05
 Reference value :  4.30001e-05
 Reference value :  4.30009e-05
 Reference value :  4.30022e-05
 Reference value :  4.30041e-05
 Reference value :  4.30067e-05
 Reference value :  4.30100e-05
 Reference value :  4.30113e-05
 Reference value :  4.30144e-05
 Reference value :  4.30159e-05
 Reference value :  4.30196e-05
 Reference value :  4.30410e-05
 Reference value :  4.32501e-05
 Reference value :  4.32502e-05
 Reference value :  4.32503e-05
 Reference value :  4.32511e-05
 Reference value :  4.32520e-05
 Reference value :  4.32547e-05
 Reference value :  4.32570e-05
 Reference value :  4.32608e-05
 Reference value :  4.32862e-05
 Reference value :  4.34349e-05
 Reference value :  4.35012e-05
 Reference value :  4.35048e-05
 Reference value :  4.35079e-05
 Reference value :  4.35112e-05
 Reference value :  4.35133e-05
 Reference value :  4.35167e-05
 Reference value :  4.35191e-05
 Reference value :  4.35217e-05
 Reference value :  4.35280e-05
 Reference value :  4.35919e-05
 Reference value :  4.37501e-05
 Reference value :  4.37502e-05
 Reference value :  4.37503e-05
 Reference value :  4.37511e-05
 Reference value :  4.37520e-05
 Reference value :  4.37540e-05
 Reference value :  4.37553e-05
 Reference value :  4.37568e-05
 Reference value :  4.37595e-05
 Reference value :  4.37811e-05
 Reference value :  4.39979e-05
 Reference value :  4.40001e-05
 Reference value :  4.40002e-05
 Reference value :  4.40005e-05
 Reference value :  4.40013e-05
 Reference value :  4.40022e-05
 Reference value :  4.40033e-05
 Reference value :  4.40049e-05
 Reference value :  4.40067e-05
 Reference value :  4.40075e-05
 Reference value :  4.40095e-05
 Reference value :  4.40116e-05
 Reference value :  4.40168e-05
 Reference value :  4.42117e-05
 Reference value :  4.42502e-05
 Reference value :  4.42507e-05
 Reference value :  4.42525e-05
 Reference value :  4.42546e-05
 Reference value :  4.42578e-05
 Reference value :  4.42632e-05
 Reference value :  4.42986e-05
 Reference value :  4.45000e-05
 Reference value :  4.45002e-05
 Reference value :  4.45009e-05
 Reference value :  4.45022e-05
 Reference value :  4.45046e-05
 Reference value :  4.45058e-05
 Reference value :  4.45080e-05
 Reference value :  4.45115e-05
 Reference value :  4.45138e-05
 Reference value :  4.45161e-05
 Reference value :  4.45183e-05
 Reference value :  4.45208e-05
 Reference value :  4.45265e-05
 Reference value :  4.45493e-05
 Reference value :  4.46025e-05
 Reference value :  4.47395e-05
 Reference value :  4.47501e-05
 Reference value :  4.47502e-05
 Reference value :  4.47503e-05
 Reference value :  4.47515e-05
 Reference value :  4.47533e-05
 Reference value :  4.47553e-05
 Reference value :  4.47595e-05
 Reference value :  4.47980e-05
 Reference value :  4.50000e-05
 Reference value :  4.50001e-05
 Reference value :  4.50002e-05
 Reference value :  4.50013e-05
 Reference value :  4.50027e-05
 Reference value :  4.50049e-05
 Reference value :  4.50075e-05
 Reference value :  4.50116e-05
 Reference value :  4.50168e-05
 Reference value :  4.52112e-05
 Reference value :  4.52502e-05
 Reference value :  4.52504e-05
 Reference value :  4.52520e-05
 Reference value :  4.52540e-05
 Reference value :  4.52560e-05
 Reference value :  4.52599e-05
 Reference value :  4.52837e-05
 Reference value :  4.55000e-05
 Reference value :  4.55002e-05
 Reference value :  4.55018e-05
 Reference value :  4.55040e-05
 Reference value :  4.55058e-05
 Reference value :  4.55090e-05
 Reference value :  4.55115e-05
 Reference value :  4.55138e-05
 Reference value :  4.55163e-05
 Reference value :  4.55185e-05
 Reference value :  4.55211e-05
 Reference value :  4.55277e-05
 Reference value :  4.55941e-05
 Reference value :  4.56395e-05
 Reference value :  4.56656e-05
 Reference value :  4.56982e-05
 Reference value :  4.57501e-05
 Reference value :  4.57502e-05
 Reference value :  4.57511e-05
 Reference value :  4.57533e-05
 Reference value :  4.57560e-05
 Reference value :  4.57616e-05
 Reference value :  4.58303e-05
 Reference value :  4.60000e-05
 Reference value :  4.60002e-05
 Reference value :  4.60012e-05
 Reference value :  4.60032e-05
 Reference value :  4.60063e-05
 Reference value :  4.60096e-05
 Reference value :  4.60132e-05
 Reference value :  4.60383e-05
 Reference value :  4.62501e-05
 Reference value :  4.62502e-05
 Reference value :  4.62504e-05
 Reference value :  4.62515e-05
 Reference value :  4.62525e-05
 Reference value :  4.62546e-05
 Reference value :  4.62578e-05
 Reference value :  4.62818e-05
 Reference value :  4.65000e-05
 Reference value :  4.65001e-05
 Reference value :  4.65002e-05
 Reference value :  4.65013e-05
 Reference value :  4.65022e-05
 Reference value :  4.65046e-05
 Reference value :  4.65058e-05
 Reference value :  4.65080e-05
 Reference value :  4.65140e-05
 Reference value :  4.65180e-05
 Reference value :  4.65203e-05
 Reference value :  4.65286e-05
 Reference value :  4.65395e-05
 Reference value :  4.65507e-05
 Reference value :  4.65740e-05
 Reference value :  4.67501e-05
 Reference value :  4.67502e-05
 Reference value :  4.67507e-05
 Reference value :  4.67520e-05
 Reference value :  4.67547e-05
 Reference value :  4.67581e-05
 Reference value :  4.67832e-05
 Reference value :  4.70000e-05
 Reference value :  4.70001e-05
 Reference value :  4.70002e-05
 Reference value :  4.70009e-05
 Reference value :  4.70022e-05
 Reference value :  4.70041e-05
 Reference value :  4.70056e-05
 Reference value :  4.70075e-05
 Reference value :  4.70095e-05
 Reference value :  4.70128e-05
 Reference value :  4.70283e-05
 Reference value :  4.72120e-05
 Reference value :  4.72501e-05
 Reference value :  4.72502e-05
 Reference value :  4.72503e-05
 Reference value :  4.72511e-05
 Reference value :  4.72520e-05
 Reference value :  4.72540e-05
 Reference value :  4.72553e-05
 Reference value :  4.72569e-05
 Reference value :  4.72588e-05
 Reference value :  4.72632e-05
 Reference value :  4.72839e-05
 Reference value :  4.73582e-05
 Reference value :  4.75000e-05
 Reference value :  4.75001e-05
 Reference value :  4.75002e-05
 Reference value :  4.75003e-05
 Reference value :  4.75013e-05
 Reference value :  4.75022e-05
 Reference value :  4.75040e-05
 Reference value :  4.75046e-05
 Reference value :  4.75058e-05
 Reference value :  4.75071e-05
 Reference value :  4.75105e-05
 Reference value :  4.75115e-05
 Reference value :  4.75138e-05
 Reference value :  4.75162e-05
 Reference value :  4.75185e-05
 Reference value :  4.75211e-05
 Reference value :  4.75276e-05
 Reference value :  4.75547e-05
 Reference value :  4.75712e-05
 Reference value :  4.76146e-05
 Reference value :  4.76485e-05
 Reference value :  4.77501e-05
 Reference value :  4.77501e-05
 Reference value :  4.77502e-05
 Reference value :  4.77503e-05
 Reference value :  4.77507e-05
 Reference value :  4.77515e-05
 Reference value :  4.77520e-05
 Reference value :  4.77533e-05
 Reference value :  4.77540e-05
 Reference value :  4.77546e-05
 Reference value :  4.77560e-05
 Reference value :  4.77569e-05
 Reference value :  4.77595e-05
 Reference value :  4.77651e-05
 Reference value :  4.77812e-05
 Reference value :  4.78301e-05
 Reference value :  4.80000e-05
 Reference value :  4.80001e-05
 Reference value :  4.80001e-05
 Reference value :  4.80003e-05
 Reference value :  4.80013e-05
 Reference value :  4.80027e-05
 Reference value :  4.80049e-05
 Reference value :  4.80075e-05
 Reference value :  4.80095e-05
 Reference value :  4.80128e-05
 Reference value :  4.80419e-05
 Reference value :  4.82501e-05
 Reference value :  4.82502e-05
 Reference value :  4.82507e-05
 Reference value :  4.82520e-05
 Reference value :  4.82540e-05
 Reference value :  4.82553e-05
 Reference value :  4.82569e-05
 Reference value :  4.82599e-05
 Reference value :  4.82690e-05
 Reference value :  4.83212e-05
 Reference value :  4.85000e-05
 Reference value :  4.85001e-05
 Reference value :  4.85002e-05
 Reference value :  4.85009e-05
 Reference value :  4.85018e-05
 Reference value :  4.85028e-05
 Reference value :  4.85046e-05
 Reference value :  4.85058e-05
 Reference value :  4.85071e-05
 Reference value :  4.85090e-05
 Reference value :  4.85115e-05
 Reference value :  4.85138e-05
 Reference value :  4.85162e-05
 Reference value :  4.85186e-05
 Reference value :  4.85228e-05
 Reference value :  4.85342e-05
 Reference value :  4.85481e-05
 Reference value :  4.86424e-05
 Reference value :  4.87501e-05
 Reference value :  4.87502e-05
 Reference value :  4.87503e-05
 Reference value :  4.87511e-05
 Reference value :  4.87525e-05
 Reference value :  4.87546e-05
 Reference value :  4.87568e-05
 Reference value :  4.87616e-05
 Reference value :  4.87980e-05
 Reference value :  4.90000e-05
 Reference value :  4.90001e-05
 Reference value :  4.90002e-05
 Reference value :  4.90005e-05
 Reference value :  4.90013e-05
 Reference value :  4.90022e-05
 Reference value :  4.90041e-05
 Reference value :  4.90075e-05
 Reference value :  4.90095e-05
 Reference value :  4.90116e-05
 Reference value :  4.90141e-05
 Reference value :  4.90283e-05
 Reference value :  4.91145e-05
 Reference value :  4.92501e-05
 Reference value :  4.92502e-05
 Reference value :  4.92503e-05
 Reference value :  4.92507e-05
 Reference value :  4.92520e-05
 Reference value :  4.92540e-05
 Reference value :  4.92546e-05
 Reference value :  4.92569e-05
 Reference value :  4.92588e-05
 Reference value :  4.92612e-05
 Reference value :  4.92690e-05
 Reference value :  4.92837e-05
 Reference value :  4.93575e-05
 Reference value :  4.95000e-05
 Reference value :  4.95001e-05
 Reference value :  4.95002e-05
[...]
 Reference value :  1.66265e-04
 Reference value :  1.66299e-04
 Reference value :  1.66500e-04
 Reference value :  1.66500e-04
 Reference value :  1.66500e-04
 Reference value :  1.66501e-04
 Reference value :  1.66501e-04
 Reference value :  1.66502e-04
 Reference value :  1.66504e-04
 Reference value :  1.66505e-04
 Reference value :  1.66506e-04
 Reference value :  1.66507e-04
 Reference value :  1.66510e-04
 Reference value :  1.66511e-04
 Reference value :  1.66514e-04
 Reference value :  1.66516e-04
 Reference value :  1.66518e-04
 Reference value :  1.66521e-04
 Reference value :  1.66528e-04
 Reference value :  1.66554e-04
 Reference value :  1.66572e-04
 Reference value :  1.66590e-04
 Reference value :  1.66604e-04
 Reference value :  1.66623e-04
 Reference value :  1.66681e-04
 Reference value :  1.66750e-04
 Reference value :  1.66750e-04
 Reference value :  1.66750e-04
 Reference value :  1.66751e-04
 Reference value :  1.66752e-04
 Reference value :  1.66753e-04
 Reference value :  1.66754e-04
 Reference value :  1.66755e-04
 Reference value :  1.66757e-04
 Reference value :  1.66762e-04
 Reference value :  1.66798e-04
 Reference value :  1.66961e-04
 Reference value :  1.67000e-04
 Reference value :  1.67000e-04
 Reference value :  1.67000e-04
 Reference value :  1.67001e-04
 Reference value :  1.67002e-04
 Reference value :  1.67004e-04
 Reference value :  1.67007e-04
 Reference value :  1.67008e-04
 Reference value :  1.67009e-04
 Reference value :  1.67013e-04
 Reference value :  1.67028e-04
 Reference value :  1.67211e-04
 Reference value :  1.67250e-04
 Reference value :  1.67250e-04
 Reference value :  1.67251e-04
 Reference value :  1.67252e-04
 Reference value :  1.67254e-04
 Reference value :  1.67255e-04
 Reference value :  1.67257e-04
 Reference value :  1.67260e-04
 Reference value :  1.67269e-04
 Reference value :  1.67298e-04
 Reference value :  1.67416e-04
 Reference value :  1.67500e-04
 Reference value :  1.67500e-04
 Reference value :  1.67500e-04
 Reference value :  1.67501e-04
 Reference value :  1.67502e-04
 Reference value :  1.67504e-04
 Reference value :  1.67505e-04
 Reference value :  1.67506e-04
 Reference value :  1.67509e-04
 Reference value :  1.67511e-04
 Reference value :  1.67514e-04
 Reference value :  1.67517e-04
 Reference value :  1.67520e-04
 Reference value :  1.67525e-04
 Reference value :  1.67529e-04
 Reference value :  1.67539e-04
 Reference value :  1.67607e-04
 Reference value :  1.67750e-04
 Reference value :  1.67750e-04
 Reference value :  1.67751e-04
 Reference value :  1.67752e-04
 Reference value :  1.67754e-04
 Reference value :  1.67756e-04
 Reference value :  1.67758e-04
 Reference value :  1.67771e-04
 Reference value :  1.67885e-04
 Reference value :  1.68000e-04
 Reference value :  1.68000e-04
 Reference value :  1.68001e-04
 Reference value :  1.68002e-04
 Reference value :  1.68004e-04
 Reference value :  1.68005e-04
 Reference value :  1.68007e-04
 Reference value :  1.68009e-04
 Reference value :  1.68011e-04
 Reference value :  1.68014e-04
 Reference value :  1.68031e-04
 Reference value :  1.68167e-04
 Reference value :  1.68250e-04
 Reference value :  1.68250e-04
 Reference value :  1.68250e-04
 Reference value :  1.68252e-04
 Reference value :  1.68253e-04
 Reference value :  1.68254e-04
 Reference value :  1.68255e-04
 Reference value :  1.68257e-04
 Reference value :  1.68262e-04
 Reference value :  1.68300e-04
 Reference value :  1.68478e-04
 Reference value :  1.68500e-04
 Reference value :  1.68500e-04
 Reference value :  1.68500e-04
 Reference value :  1.68501e-04
 Reference value :  1.68502e-04
 Reference value :  1.68503e-04
 Reference value :  1.68505e-04
 Reference value :  1.68506e-04
 Reference value :  1.68506e-04
 Reference value :  1.68509e-04
 Reference value :  1.68513e-04
 Reference value :  1.68514e-04
 Reference value :  1.68515e-04
 Reference value :  1.68518e-04
 Reference value :  1.68520e-04
 Reference value :  1.68525e-04
 Reference value :  1.68558e-04
 Reference value :  1.68690e-04
 Reference value :  1.68750e-04
 Reference value :  1.68750e-04
 Reference value :  1.68750e-04
 Reference value :  1.68752e-04
 Reference value :  1.68753e-04
 Reference value :  1.68755e-04
 Reference value :  1.68757e-04
 Reference value :  1.68765e-04
 Reference value :  1.68830e-04
 Reference value :  1.69000e-04
 Reference value :  1.69000e-04
 Reference value :  1.69000e-04
 Reference value :  1.69001e-04
 Reference value :  1.69002e-04
 Reference value :  1.69004e-04
 Reference value :  1.69006e-04
 Reference value :  1.69008e-04
 Reference value :  1.69010e-04
 Reference value :  1.69012e-04
 Reference value :  1.69031e-04
 Reference value :  1.69250e-04
 Reference value :  1.69250e-04
 Reference value :  1.69250e-04
 Reference value :  1.69252e-04
 Reference value :  1.69253e-04
 Reference value :  1.69255e-04
 Reference value :  1.69257e-04
 Reference value :  1.69265e-04
 Reference value :  1.69385e-04
 Reference value :  1.69500e-04
 Reference value :  1.69500e-04
 Reference value :  1.69501e-04
 Reference value :  1.69503e-04
 Reference value :  1.69505e-04
 Reference value :  1.69506e-04
 Reference value :  1.69507e-04
 Reference value :  1.69510e-04
 Reference value :  1.69518e-04
 Reference value :  1.69655e-04
 Reference value :  1.69750e-04
 Reference value :  1.69750e-04
 Reference value :  1.69752e-04
 Reference value :  1.69753e-04
 Reference value :  1.69754e-04
 Reference value :  1.69756e-04
 Reference value :  1.69760e-04
 Reference value :  1.69772e-04
 Reference value :  1.69855e-04
 Reference value :  1.70000e-04
 Reference value :  1.70000e-04
 Reference value :  1.70000e-04
 Reference value :  1.70000e-04
 Reference value :  1.70000e-04
 Reference value :  1.70000e-04
 Reference value :  1.70000e-04
 Reference value :  1.70001e-04
 Reference value :  1.70002e-04
 Reference value :  1.70003e-04
 Reference value :  1.70004e-04
 Reference value :  1.70005e-04
 Reference value :  1.70006e-04
 Reference value :  1.70007e-04
 Reference value :  1.70009e-04
 Reference value :  1.70022e-04
 Reference value :  1.70029e-04
 Reference value :  1.70034e-04
 Reference value :  1.70041e-04
 Reference value :  1.70046e-04
 Reference value :  1.70049e-04
 Reference value :  1.70057e-04
 Reference value :  1.70080e-04
 Reference value :  1.70111e-04
 Reference value :  1.70131e-04
 Reference value :  1.70167e-04
 Reference value :  1.70250e-04
 Reference value :  1.70250e-04
 Reference value :  1.70250e-04
 Reference value :  1.70252e-04
 Reference value :  1.70254e-04
 Reference value :  1.70255e-04
 Reference value :  1.70257e-04
 Reference value :  1.70266e-04
 Reference value :  1.70333e-04
 Reference value :  1.70500e-04
 Reference value :  1.70500e-04
 Reference value :  1.70501e-04
 Reference value :  1.70502e-04
 Reference value :  1.70503e-04
 Reference value :  1.70505e-04
 Reference value :  1.70508e-04
 Reference value :  1.70511e-04
 Reference value :  1.70514e-04
 Reference value :  1.70518e-04
 Reference value :  1.70532e-04
 Reference value :  1.70665e-04
 Reference value :  1.70750e-04
 Reference value :  1.70750e-04
 Reference value :  1.70752e-04
 Reference value :  1.70753e-04
 Reference value :  1.70755e-04
 Reference value :  1.70757e-04
 Reference value :  1.70760e-04
 Reference value :  1.70769e-04
 Reference value :  1.70825e-04
 Reference value :  1.71000e-04
 Reference value :  1.71000e-04
 Reference value :  1.71000e-04
 Reference value :  1.71001e-04
 Reference value :  1.71001e-04
 Reference value :  1.71003e-04
 Reference value :  1.71005e-04
 Reference value :  1.71006e-04
 Reference value :  1.71007e-04
 Reference value :  1.71009e-04
 Reference value :  1.71011e-04
 Reference value :  1.71014e-04
 Reference value :  1.71016e-04
 Reference value :  1.71018e-04
 Reference value :  1.71022e-04
 Reference value :  1.71026e-04
 Reference value :  1.71046e-04
 Reference value :  1.71157e-04
 Reference value :  1.71250e-04
 Reference value :  1.71250e-04
 Reference value :  1.71250e-04
 Reference value :  1.71250e-04
 Reference value :  1.71252e-04
 Reference value :  1.71253e-04
 Reference value :  1.71254e-04
 Reference value :  1.71255e-04
 Reference value :  1.71257e-04
 Reference value :  1.71265e-04
 Reference value :  1.71330e-04
 Reference value :  1.71500e-04
 Reference value :  1.71500e-04
 Reference value :  1.71501e-04
 Reference value :  1.71502e-04
 Reference value :  1.71503e-04
 Reference value :  1.71505e-04
 Reference value :  1.71508e-04
 Reference value :  1.71509e-04
 Reference value :  1.71513e-04
 Reference value :  1.71528e-04
 Reference value :  1.71711e-04
 Reference value :  1.71750e-04
 Reference value :  1.71750e-04
 Reference value :  1.71750e-04
 Reference value :  1.71751e-04
 Reference value :  1.71752e-04
 Reference value :  1.71753e-04
 Reference value :  1.71755e-04
 Reference value :  1.71757e-04
 Reference value :  1.71760e-04
 Reference value :  1.71765e-04
 Reference value :  1.71784e-04
 Reference value :  1.71857e-04
 Reference value :  1.72000e-04
 Reference value :  1.72000e-04
 Reference value :  1.72000e-04
 Reference value :  1.72001e-04
 Reference value :  1.72001e-04
 Reference value :  1.72002e-04
 Reference value :  1.72004e-04
 Reference value :  1.72005e-04
 Reference value :  1.72006e-04
 Reference value :  1.72008e-04
 Reference value :  1.72011e-04
 Reference value :  1.72014e-04
 Reference value :  1.72016e-04
 Reference value :  1.72020e-04
 Reference value :  1.72024e-04
 Reference value :  1.72072e-04
 Reference value :  1.72250e-04
 Reference value :  1.72250e-04
 Reference value :  1.72250e-04
 Reference value :  1.72251e-04
 Reference value :  1.72252e-04
 Reference value :  1.72254e-04
 Reference value :  1.72256e-04
 Reference value :  1.72259e-04
 Reference value :  1.72298e-04
 Reference value :  1.72500e-04
 Reference value :  1.72500e-04
 Reference value :  1.72500e-04
 Reference value :  1.72501e-04
 Reference value :  1.72501e-04
 Reference value :  1.72502e-04
 Reference value :  1.72504e-04
 Reference value :  1.72506e-04
 Reference value :  1.72508e-04
 Reference value :  1.72509e-04
 Reference value :  1.72512e-04
 Reference value :  1.72513e-04
 Reference value :  1.72517e-04
 Reference value :  1.72528e-04
 Reference value :  1.72566e-04
 Reference value :  1.72711e-04
 Reference value :  1.72750e-04
 Reference value :  1.72750e-04
 Reference value :  1.72750e-04
 Reference value :  1.72750e-04
 Reference value :  1.72751e-04
 Reference value :  1.72752e-04
 Reference value :  1.72754e-04
 Reference value :  1.72755e-04
 Reference value :  1.72757e-04
 Reference value :  1.72760e-04
 Reference value :  1.72765e-04
 Reference value :  1.72784e-04
 Reference value :  1.72857e-04
 Reference value :  1.73000e-04
 Reference value :  1.73000e-04
 Reference value :  1.73000e-04
 Reference value :  1.73001e-04
 Reference value :  1.73001e-04
 Reference value :  1.73002e-04
 Reference value :  1.73004e-04
 Reference value :  1.73005e-04
 Reference value :  1.73006e-04
 Reference value :  1.73006e-04
 Reference value :  1.73008e-04
 Reference value :  1.73010e-04
 Reference value :  1.73011e-04
 Reference value :  1.73014e-04
 Reference value :  1.73016e-04
 Reference value :  1.73018e-04
 Reference value :  1.73021e-04
 Reference value :  1.73025e-04
 Reference value :  1.73033e-04
 Reference value :  1.73053e-04
 Reference value :  1.73085e-04
 Reference value :  1.73100e-04
 Reference value :  1.73111e-04
 Reference value :  1.73133e-04
 Reference value :  1.73163e-04
 Reference value :  1.73197e-04
 Reference value :  1.73250e-04
 Reference value :  1.73250e-04
 Reference value :  1.73250e-04
 Reference value :  1.73250e-04
 Reference value :  1.73252e-04
 Reference value :  1.73253e-04
 Reference value :  1.73254e-04
 Reference value :  1.73255e-04
 Reference value :  1.73256e-04
 Reference value :  1.73257e-04
 Reference value :  1.73262e-04
 Reference value :  1.73281e-04
 Reference value :  1.73483e-04
 Reference value :  1.73500e-04
 Reference value :  1.73500e-04
 Reference value :  1.73500e-04
 Reference value :  1.73501e-04
 Reference value :  1.73502e-04
 Reference value :  1.73504e-04
 Reference value :  1.73505e-04
 Reference value :  1.73507e-04
 Reference value :  1.73509e-04
 Reference value :  1.73511e-04
 Reference value :  1.73514e-04
 Reference value :  1.73531e-04
 Reference value :  1.73750e-04
 Reference value :  1.73750e-04
 Reference value :  1.73750e-04
 Reference value :  1.73750e-04
 Reference value :  1.73752e-04
 Reference value :  1.73753e-04
 Reference value :  1.73754e-04
 Reference value :  1.73755e-04
 Reference value :  1.73757e-04
 Reference value :  1.73762e-04
 Reference value :  1.73800e-04
 Reference value :  1.74000e-04
 Reference value :  1.74000e-04
 Reference value :  1.74000e-04
 Reference value :  1.74000e-04
 Reference value :  1.74001e-04
 Reference value :  1.74002e-04
 Reference value :  1.74004e-04
 Reference value :  1.74005e-04
 Reference value :  1.74006e-04
 Reference value :  1.74009e-04
 Reference value :  1.74013e-04
 Reference value :  1.74014e-04
 Reference value :  1.74017e-04
 Reference value :  1.74019e-04
 Reference value :  1.74023e-04
 Reference value :  1.74043e-04
 Reference value :  1.74071e-04
 Reference value :  1.74091e-04
 Reference value :  1.74169e-04
 Reference value :  1.74250e-04
 Reference value :  1.74250e-04
 Reference value :  1.74252e-04
 Reference value :  1.74253e-04
 Reference value :  1.74255e-04
 Reference value :  1.74258e-04
 Reference value :  1.74273e-04
 Reference value :  1.74388e-04
 Reference value :  1.74500e-04
 Reference value :  1.74500e-04
 Reference value :  1.74501e-04
 Reference value :  1.74503e-04
 Reference value :  1.74504e-04
 Reference value :  1.74507e-04
 Reference value :  1.74508e-04
 Reference value :  1.74512e-04
 Reference value :  1.74517e-04
 Reference value :  1.74566e-04
 Reference value :  1.74750e-04
 Reference value :  1.74750e-04
 Reference value :  1.74750e-04
 Reference value :  1.74751e-04
 Reference value :  1.74752e-04
 Reference value :  1.74754e-04
 Reference value :  1.74755e-04
 Reference value :  1.74757e-04
 Reference value :  1.74761e-04
 Reference value :  1.74775e-04
 Reference value :  1.74917e-04
 Reference value :  1.75000e-04
 Reference value :  1.75000e-04
 Reference value :  1.75002e-04
 Reference value :  1.75003e-04
 Reference value :  1.75005e-04
 Reference value :  1.75006e-04
 Reference value :  1.75007e-04
 Reference value :  1.75010e-04
 Reference value :  1.75013e-04
 Reference value :  1.75015e-04
 Reference value :  1.75017e-04
 Reference value :  1.75020e-04
 Reference value :  1.75028e-04
 Reference value :  1.75053e-04
 Reference value :  1.75070e-04
 Reference value :  1.75077e-04
 Reference value :  1.75083e-04
 Reference value :  1.75102e-04
 Reference value :  1.75148e-04
 Reference value :  1.75250e-04
 Reference value :  1.75250e-04
 Reference value :  1.75250e-04
 Reference value :  1.75251e-04
 Reference value :  1.75252e-04
 Reference value :  1.75254e-04
 Reference value :  1.75255e-04
 Reference value :  1.75258e-04
 Reference value :  1.75281e-04
 Reference value :  1.75498e-04
 Reference value :  1.75500e-04
 Reference value :  1.75500e-04
 Reference value :  1.75500e-04
 Reference value :  1.75501e-04
 Reference value :  1.75502e-04
 Reference value :  1.75505e-04
 Reference value :  1.75506e-04
 Reference value :  1.75508e-04
 Reference value :  1.75510e-04
 Reference value :  1.75512e-04
 Reference value :  1.75516e-04
 Reference value :  1.75531e-04
 Reference value :  1.75667e-04
 Reference value :  1.75750e-04
 Reference value :  1.75750e-04
 Reference value :  1.75750e-04
 Reference value :  1.75751e-04
 Reference value :  1.75752e-04
 Reference value :  1.75753e-04
 Reference value :  1.75754e-04
 Reference value :  1.75755e-04
 Reference value :  1.75758e-04
 Reference value :  1.75766e-04
 Reference value :  1.75831e-04
 Reference value :  1.76000e-04
 Reference value :  1.76000e-04
 Reference value :  1.76000e-04
 Reference value :  1.76000e-04
 Reference value :  1.76001e-04
 Reference value :  1.76002e-04
 Reference value :  1.76004e-04
 Reference value :  1.76005e-04
 Reference value :  1.76006e-04
 Reference value :  1.76007e-04
 Reference value :  1.76011e-04
 Reference value :  1.76014e-04
 Reference value :  1.76017e-04
 Reference value :  1.76019e-04
 Reference value :  1.76023e-04
 Reference value :  1.76034e-04
 Reference value :  1.76041e-04
 Reference value :  1.76050e-04
 Reference value :  1.76056e-04
 Reference value :  1.76069e-04
 Reference value :  1.76101e-04
 Reference value :  1.76190e-04
 Reference value :  1.76250e-04
 Reference value :  1.76250e-04
 Reference value :  1.76250e-04
 Reference value :  1.76250e-04
 Reference value :  1.76251e-04
 Reference value :  1.76252e-04
 Reference value :  1.76254e-04
 Reference value :  1.76255e-04
 Reference value :  1.76257e-04
 Reference value :  1.76262e-04
 Reference value :  1.76299e-04
 Reference value :  1.76497e-04
 Reference value :  1.76500e-04
 Reference value :  1.76500e-04
 Reference value :  1.76500e-04
 Reference value :  1.76501e-04
 Reference value :  1.76502e-04
 Reference value :  1.76504e-04
 Reference value :  1.76507e-04
 Reference value :  1.76508e-04
 Reference value :  1.76509e-04
 Reference value :  1.76512e-04
 Reference value :  1.76514e-04
 Reference value :  1.76528e-04
 Reference value :  1.76615e-04
 Reference value :  1.76750e-04
 Reference value :  1.76750e-04
 Reference value :  1.76750e-04
 Reference value :  1.76751e-04
 Reference value :  1.76752e-04
 Reference value :  1.76754e-04
 Reference value :  1.76755e-04
 Reference value :  1.76757e-04
 Reference value :  1.76760e-04
 Reference value :  1.76765e-04
 Reference value :  1.76799e-04
 Reference value :  1.76917e-04
 Reference value :  1.77000e-04
 Reference value :  1.77000e-04
 Reference value :  1.77000e-04
 Reference value :  1.77001e-04
 Reference value :  1.77002e-04
 Reference value :  1.77003e-04
 Reference value :  1.77004e-04
 Reference value :  1.77005e-04
 Reference value :  1.77006e-04
 Reference value :  1.77008e-04
 Reference value :  1.77011e-04
 Reference value :  1.77014e-04
 Reference value :  1.77017e-04
 Reference value :  1.77021e-04
 Reference value :  1.77031e-04
 Reference value :  1.77131e-04
 Reference value :  1.77250e-04
 Reference value :  1.77250e-04
 Reference value :  1.77251e-04
 Reference value :  1.77252e-04
 Reference value :  1.77254e-04
 Reference value :  1.77256e-04
 Reference value :  1.77259e-04
 Reference value :  1.77330e-04
 Reference value :  1.77500e-04
 Reference value :  1.77500e-04
 Reference value :  1.77501e-04
 Reference value :  1.77502e-04
 Reference value :  1.77503e-04
 Reference value :  1.77506e-04
 Reference value :  1.77508e-04
 Reference value :  1.77511e-04
 Reference value :  1.77521e-04
 Reference value :  1.77614e-04
 Reference value :  1.77750e-04
 Reference value :  1.77750e-04
 Reference value :  1.77752e-04
 Reference value :  1.77753e-04
 Reference value :  1.77755e-04
 Reference value :  1.77758e-04
 Reference value :  1.77765e-04
 Reference value :  1.77821e-04
 Reference value :  1.78000e-04
 Reference value :  1.78000e-04
 Reference value :  1.78001e-04
 Reference value :  1.78002e-04
 Reference value :  1.78003e-04
 Reference value :  1.78005e-04
 Reference value :  1.78006e-04
 Reference value :  1.78009e-04
 Reference value :  1.78011e-04
 Reference value :  1.78014e-04
 Reference value :  1.78018e-04
 Reference value :  1.78046e-04
 Reference value :  1.78250e-04
 Reference value :  1.78250e-04
 Reference value :  1.78250e-04
 Reference value :  1.78251e-04
 Reference value :  1.78252e-04
 Reference value :  1.78253e-04
 Reference value :  1.78256e-04
 Reference value :  1.78260e-04
 Reference value :  1.78317e-04
 Reference value :  1.78500e-04
No. of Data Rows : 26206
ngspice-44 done
