
Note: Compatibility modes selected: hs a


Circuit: ** sch_path: /home/samantha/cace/sar-adc-using-sky130-pdk/runs/run_2025-09-04_11-32-36/parameters/sampling_rate/run_5/sampling_rate.sch

option SCALE: Scale is set to 1e-06 for instance and model parameters
option SCALE: Scale is set to 1e-06 for instance and model parameters
option SCALE: Scale is set to 1e-06 for instance and model parameters
option SCALE: Scale is set to 1e-06 for instance and model parameters
Doing analysis at TEMP = 27.000000 and TNOM = 27.000000

Using KLU as Direct Linear Solver
Operating point simulation skipped by 'uic',
  now using transient initial conditions.
 Reference value :  1.00000e-12
 Reference value :  1.02776e-12
 Reference value :  1.08327e-12
 Reference value :  1.19431e-12
 Reference value :  1.41637e-12
 Reference value :  1.67614e-12
 Reference value :  2.19567e-12
 Reference value :  3.05274e-12
 Reference value :  4.14639e-12
 Reference value :  6.05718e-12
 Reference value :  9.02986e-12
 Reference value :  1.32005e-11
 Reference value :  3.20058e-11
 Reference value :  5.70794e-11
 Reference value :  1.00000e-10
 Reference value :  1.15044e-10
 Reference value :  1.75221e-10
 Reference value :  4.15928e-10
 Reference value :  9.09251e-10
 Reference value :  1.33351e-09
 Reference value :  1.82032e-09
 Reference value :  3.12270e-09
 Reference value :  4.88543e-09
 Reference value :  6.53655e-09
 Reference value :  7.15970e-09
 Reference value :  7.76503e-09
 Reference value :  9.25757e-09
 Reference value :  9.94664e-09
 Reference value :  1.13054e-08
 Reference value :  1.32584e-08
 Reference value :  2.21814e-08
 Reference value :  2.64447e-08
 Reference value :  3.00441e-08
 Reference value :  3.78158e-08
 Reference value :  5.76205e-08
 Reference value :  1.06033e-07
 Reference value :  2.50100e-07
 Reference value :  2.50130e-07
 Reference value :  2.50170e-07
 Reference value :  2.50200e-07
 Reference value :  2.50223e-07
 Reference value :  2.50255e-07
 Reference value :  2.50411e-07
 Reference value :  2.50550e-07
 Reference value :  2.51014e-07
 Reference value :  2.51487e-07
 Reference value :  2.51971e-07
 Reference value :  2.53135e-07
 Reference value :  2.53826e-07
 Reference value :  2.54451e-07
 Reference value :  2.55087e-07
 Reference value :  2.55766e-07
 Reference value :  2.56454e-07
 Reference value :  2.57818e-07
 Reference value :  2.59359e-07
 Reference value :  2.61343e-07
 Reference value :  2.69339e-07
 Reference value :  2.99199e-07
 Reference value :  4.17643e-07
 Reference value :  5.00010e-07
 Reference value :  5.00070e-07
 Reference value :  5.00100e-07
 Reference value :  5.00124e-07
 Reference value :  5.00218e-07
 Reference value :  5.00344e-07
 Reference value :  5.00884e-07
 Reference value :  5.01634e-07
 Reference value :  5.02108e-07
 Reference value :  5.02580e-07
 Reference value :  5.03098e-07
 Reference value :  5.03678e-07
 Reference value :  5.04255e-07
 Reference value :  5.05034e-07
 Reference value :  5.07092e-07
 Reference value :  5.09716e-07
 Reference value :  5.12347e-07
 Reference value :  5.14065e-07
 Reference value :  5.17738e-07
 Reference value :  5.20681e-07
 Reference value :  5.30791e-07
 Reference value :  5.41746e-07
 Reference value :  5.58171e-07
 Reference value :  6.34584e-07
 Reference value :  7.50100e-07
 Reference value :  7.50130e-07
 Reference value :  7.50170e-07
 Reference value :  7.50200e-07
 Reference value :  7.50208e-07
 Reference value :  7.50224e-07
 Reference value :  7.50256e-07
 Reference value :  7.50320e-07
 Reference value :  7.50448e-07
 Reference value :  7.50629e-07
 Reference value :  7.50874e-07
 Reference value :  7.51363e-07
 Reference value :  7.51772e-07
 Reference value :  7.52220e-07
 Reference value :  7.52797e-07
 Reference value :  7.53499e-07
 Reference value :  7.53998e-07
 Reference value :  7.54573e-07
 Reference value :  7.55178e-07
 Reference value :  7.55870e-07
 Reference value :  7.56679e-07
 Reference value :  7.57853e-07
 Reference value :  7.59996e-07
 Reference value :  7.62507e-07
 Reference value :  7.66581e-07
 Reference value :  7.74729e-07
 Reference value :  7.87909e-07
 Reference value :  8.14269e-07
 Reference value :  8.66990e-07
 Reference value :  9.72432e-07
 Reference value :  1.00000e-06
 Reference value :  1.00001e-06
 Reference value :  1.00003e-06
 Reference value :  1.00007e-06
 Reference value :  1.00010e-06
 Reference value :  1.00011e-06
 Reference value :  1.00012e-06
 Reference value :  1.00016e-06
 Reference value :  1.00022e-06
 Reference value :  1.00034e-06
 Reference value :  1.00053e-06
 Reference value :  1.00089e-06
 Reference value :  1.00121e-06
 Reference value :  1.00163e-06
 Reference value :  1.00211e-06
 Reference value :  1.00259e-06
 Reference value :  1.00308e-06
 Reference value :  1.00365e-06
 Reference value :  1.00420e-06
 Reference value :  1.00475e-06
 Reference value :  1.00528e-06
 Reference value :  1.00585e-06
 Reference value :  1.00675e-06
 Reference value :  1.00756e-06
 Reference value :  1.01119e-06
 Reference value :  1.01273e-06
 Reference value :  1.01403e-06
 Reference value :  1.01653e-06
 Reference value :  1.01782e-06
 Reference value :  1.01918e-06
 Reference value :  1.02057e-06
 Reference value :  1.02522e-06
 Reference value :  1.03721e-06
 Reference value :  1.07455e-06
 Reference value :  1.11606e-06
 Reference value :  1.25010e-06
 Reference value :  1.25011e-06
 Reference value :  1.25013e-06
 Reference value :  1.25020e-06
 Reference value :  1.25022e-06
 Reference value :  1.25026e-06
 Reference value :  1.25045e-06
 Reference value :  1.25063e-06
 Reference value :  1.25087e-06
 Reference value :  1.25177e-06
 Reference value :  1.25222e-06
 Reference value :  1.25280e-06
 Reference value :  1.25351e-06
 Reference value :  1.25402e-06
 Reference value :  1.25515e-06
 Reference value :  1.25584e-06
 Reference value :  1.25803e-06
 Reference value :  1.25994e-06
 Reference value :  1.26269e-06
 Reference value :  1.26641e-06
 Reference value :  1.28874e-06
 Reference value :  1.37192e-06
 Reference value :  1.50001e-06
 Reference value :  1.50010e-06
 Reference value :  1.50012e-06
 Reference value :  1.50016e-06
 Reference value :  1.50022e-06
 Reference value :  1.50034e-06
 Reference value :  1.50053e-06
 Reference value :  1.50088e-06
 Reference value :  1.50121e-06
 Reference value :  1.50164e-06
 Reference value :  1.50211e-06
 Reference value :  1.50259e-06
 Reference value :  1.50308e-06
 Reference value :  1.50365e-06
 Reference value :  1.50422e-06
 Reference value :  1.50494e-06
 Reference value :  1.50577e-06
 Reference value :  1.50644e-06
 Reference value :  1.50719e-06
 Reference value :  1.50806e-06
 Reference value :  1.50901e-06
 Reference value :  1.50994e-06
 Reference value :  1.51113e-06
 Reference value :  1.51489e-06
 Reference value :  1.51837e-06
 Reference value :  1.52446e-06
 Reference value :  1.55216e-06
 Reference value :  1.75010e-06
 Reference value :  1.75011e-06
 Reference value :  1.75013e-06
 Reference value :  1.75017e-06
 Reference value :  1.75021e-06
 Reference value :  1.75022e-06
 Reference value :  1.75026e-06
 Reference value :  1.75045e-06
 Reference value :  1.75087e-06
 Reference value :  1.75136e-06
 Reference value :  1.75177e-06
 Reference value :  1.75222e-06
 Reference value :  1.75280e-06
 Reference value :  1.75350e-06
 Reference value :  1.75400e-06
 Reference value :  1.75457e-06
 Reference value :  1.75593e-06
 Reference value :  1.75805e-06
 Reference value :  1.76009e-06
 Reference value :  1.76680e-06
 Reference value :  1.81683e-06
 Reference value :  1.87151e-06
 Reference value :  1.98087e-06
 Reference value :  2.00000e-06
 Reference value :  2.00001e-06
 Reference value :  2.00003e-06
 Reference value :  2.00007e-06
 Reference value :  2.00010e-06
 Reference value :  2.00012e-06
 Reference value :  2.00022e-06
 Reference value :  2.00053e-06
 Reference value :  2.00121e-06
 Reference value :  2.00164e-06
 Reference value :  2.00259e-06
 Reference value :  2.00308e-06
 Reference value :  2.00420e-06
 Reference value :  2.00528e-06
 Reference value :  2.00675e-06
 Reference value :  2.00919e-06
 Reference value :  2.01120e-06
 Reference value :  2.01275e-06
 Reference value :  2.01405e-06
 Reference value :  2.01655e-06
 Reference value :  2.01783e-06
 Reference value :  2.02060e-06
 Reference value :  2.02527e-06
 Reference value :  2.03561e-06
 Reference value :  2.04139e-06
 Reference value :  2.04849e-06
 Reference value :  2.05488e-06
 Reference value :  2.05960e-06
 Reference value :  2.06440e-06
 Reference value :  2.06973e-06
 Reference value :  2.07660e-06
 Reference value :  2.08333e-06
 Reference value :  2.08984e-06
 Reference value :  2.09703e-06
 Reference value :  2.11140e-06
 Reference value :  2.12716e-06
 Reference value :  2.15475e-06
 Reference value :  2.19552e-06
 Reference value :  2.25010e-06
 Reference value :  2.25011e-06
 Reference value :  2.25013e-06
 Reference value :  2.25017e-06
 Reference value :  2.25020e-06
 Reference value :  2.25021e-06
 Reference value :  2.25022e-06
 Reference value :  2.25032e-06
 Reference value :  2.25045e-06
 Reference value :  2.25063e-06
 Reference value :  2.25087e-06
 Reference value :  2.25177e-06
 Reference value :  2.25280e-06
 Reference value :  2.25347e-06
 Reference value :  2.25397e-06
 Reference value :  2.25507e-06
 Reference value :  2.25576e-06
 Reference value :  2.25795e-06
 Reference value :  2.26246e-06
 Reference value :  2.27294e-06
 Reference value :  2.31403e-06
 Reference value :  2.47677e-06
 Reference value :  2.50000e-06
 Reference value :  2.50001e-06
 Reference value :  2.50003e-06
 Reference value :  2.50007e-06
 Reference value :  2.50010e-06
 Reference value :  2.50011e-06
 Reference value :  2.50012e-06
 Reference value :  2.50016e-06
 Reference value :  2.50022e-06
 Reference value :  2.50034e-06
 Reference value :  2.50053e-06
 Reference value :  2.50088e-06
 Reference value :  2.50121e-06
 Reference value :  2.50159e-06
 Reference value :  2.50205e-06
 Reference value :  2.50301e-06
 Reference value :  2.50356e-06
 Reference value :  2.50411e-06
 Reference value :  2.50490e-06
 Reference value :  2.50563e-06
 Reference value :  2.50624e-06
 Reference value :  2.50795e-06
 Reference value :  2.50889e-06
 Reference value :  2.50985e-06
 Reference value :  2.51100e-06
 Reference value :  2.51226e-06
 Reference value :  2.51871e-06
 Reference value :  2.52602e-06
 Reference value :  2.53969e-06
 Reference value :  2.56409e-06
 Reference value :  2.71047e-06
 Reference value :  2.75011e-06
 Reference value :  2.75013e-06
 Reference value :  2.75017e-06
 Reference value :  2.75020e-06
 Reference value :  2.75022e-06
 Reference value :  2.75026e-06
 Reference value :  2.75032e-06
 Reference value :  2.75045e-06
 Reference value :  2.75063e-06
 Reference value :  2.75136e-06
 Reference value :  2.75177e-06
 Reference value :  2.75222e-06
 Reference value :  2.75280e-06
 Reference value :  2.75350e-06
 Reference value :  2.75399e-06
 Reference value :  2.75457e-06
 Reference value :  2.75517e-06
 Reference value :  2.75593e-06
 Reference value :  2.75669e-06
 Reference value :  2.75752e-06
 Reference value :  2.75862e-06
 Reference value :  2.76166e-06
 Reference value :  2.76697e-06
 Reference value :  2.78010e-06
 Reference value :  2.79369e-06
 Reference value :  2.81401e-06
 Reference value :  2.84755e-06
 Reference value :  2.98659e-06
 Reference value :  3.00001e-06
 Reference value :  3.00007e-06
 Reference value :  3.00010e-06
 Reference value :  3.00011e-06
 Reference value :  3.00012e-06
 Reference value :  3.00016e-06
 Reference value :  3.00034e-06
 Reference value :  3.00089e-06
 Reference value :  3.00163e-06
 Reference value :  3.00211e-06
 Reference value :  3.00259e-06
 Reference value :  3.00309e-06
 Reference value :  3.00365e-06
 Reference value :  3.00421e-06
 Reference value :  3.00473e-06
 Reference value :  3.00523e-06
 Reference value :  3.00646e-06
 Reference value :  3.00820e-06
 Reference value :  3.01023e-06
 Reference value :  3.01121e-06
 Reference value :  3.01215e-06
 Reference value :  3.01317e-06
 Reference value :  3.01385e-06
 Reference value :  3.01463e-06
 Reference value :  3.01579e-06
 Reference value :  3.01684e-06
 Reference value :  3.01781e-06
 Reference value :  3.01910e-06
 Reference value :  3.02046e-06
 Reference value :  3.02246e-06
 Reference value :  3.02499e-06
 Reference value :  3.03567e-06
 Reference value :  3.05555e-06
 Reference value :  3.06856e-06
 Reference value :  3.08257e-06
 Reference value :  3.09562e-06
 Reference value :  3.10386e-06
 Reference value :  3.11133e-06
 Reference value :  3.11906e-06
 Reference value :  3.12710e-06
 Reference value :  3.13489e-06
 Reference value :  3.15430e-06
 Reference value :  3.16676e-06
 Reference value :  3.20045e-06
 Reference value :  3.25010e-06
 Reference value :  3.25011e-06
 Reference value :  3.25013e-06
 Reference value :  3.25020e-06
 Reference value :  3.25022e-06
 Reference value :  3.25032e-06
 Reference value :  3.25045e-06
 Reference value :  3.25063e-06
 Reference value :  3.25087e-06
 Reference value :  3.25136e-06
 Reference value :  3.25177e-06
 Reference value :  3.25222e-06
 Reference value :  3.25280e-06
 Reference value :  3.25352e-06
 Reference value :  3.25402e-06
 Reference value :  3.25460e-06
 Reference value :  3.25516e-06
 Reference value :  3.25585e-06
 Reference value :  3.25659e-06
 Reference value :  3.25997e-06
 Reference value :  3.26273e-06
 Reference value :  3.26647e-06
 Reference value :  3.27395e-06
 Reference value :  3.28892e-06
 Reference value :  3.31602e-06
 Reference value :  3.37022e-06
 Reference value :  3.47863e-06
 Reference value :  3.50000e-06
 Reference value :  3.50001e-06
 Reference value :  3.50003e-06
 Reference value :  3.50007e-06
 Reference value :  3.50010e-06
 Reference value :  3.50011e-06
 Reference value :  3.50012e-06
 Reference value :  3.50016e-06
 Reference value :  3.50022e-06
 Reference value :  3.50034e-06
 Reference value :  3.50088e-06
 Reference value :  3.50121e-06
 Reference value :  3.50164e-06
 Reference value :  3.50211e-06
 Reference value :  3.50259e-06
 Reference value :  3.50308e-06
 Reference value :  3.50365e-06
 Reference value :  3.50421e-06
 Reference value :  3.50493e-06
 Reference value :  3.50576e-06
 Reference value :  3.50643e-06
 Reference value :  3.50804e-06
 Reference value :  3.50992e-06
 Reference value :  3.51108e-06
 Reference value :  3.51476e-06
 Reference value :  3.52409e-06
 Reference value :  3.55099e-06
 Reference value :  3.65159e-06
 Reference value :  3.75010e-06
 Reference value :  3.75011e-06
 Reference value :  3.75017e-06
 Reference value :  3.75020e-06
 Reference value :  3.75022e-06
 Reference value :  3.75032e-06
 Reference value :  3.75045e-06
 Reference value :  3.75087e-06
 Reference value :  3.75177e-06
 Reference value :  3.75280e-06
 Reference value :  3.75350e-06
 Reference value :  3.75400e-06
 Reference value :  3.75458e-06
 Reference value :  3.75593e-06
 Reference value :  3.75669e-06
 Reference value :  3.76010e-06
 Reference value :  3.76681e-06
 Reference value :  3.78946e-06
 Reference value :  3.81729e-06
 Reference value :  3.98427e-06
 Reference value :  4.00001e-06
 Reference value :  4.00007e-06
 Reference value :  4.00011e-06
 Reference value :  4.00016e-06
 Reference value :  4.00022e-06
 Reference value :  4.00034e-06
 Reference value :  4.00053e-06
 Reference value :  4.00089e-06
 Reference value :  4.00164e-06
 Reference value :  4.00211e-06
 Reference value :  4.00259e-06
 Reference value :  4.00308e-06
 Reference value :  4.00365e-06
 Reference value :  4.00420e-06
 Reference value :  4.00476e-06
 Reference value :  4.00528e-06
 Reference value :  4.00586e-06
 Reference value :  4.00675e-06
 Reference value :  4.00758e-06
 Reference value :  4.00920e-06
 Reference value :  4.01119e-06
 Reference value :  4.01269e-06
 Reference value :  4.01400e-06
 Reference value :  4.01524e-06
 Reference value :  4.01650e-06
 Reference value :  4.01781e-06
 Reference value :  4.01910e-06
 Reference value :  4.02051e-06
 Reference value :  4.02293e-06
 Reference value :  4.02512e-06
 Reference value :  4.02951e-06
 Reference value :  4.03812e-06
 Reference value :  4.04220e-06
 Reference value :  4.04552e-06
 Reference value :  4.04909e-06
 Reference value :  4.05400e-06
 Reference value :  4.05959e-06
 Reference value :  4.06573e-06
 Reference value :  4.07963e-06
 Reference value :  4.10244e-06
 Reference value :  4.15766e-06
 Reference value :  4.25010e-06
 Reference value :  4.25013e-06
 Reference value :  4.25017e-06
 Reference value :  4.25021e-06
 Reference value :  4.25022e-06
 Reference value :  4.25032e-06
 Reference value :  4.25042e-06
 Reference value :  4.25061e-06
 Reference value :  4.25082e-06
 Reference value :  4.25111e-06
 Reference value :  4.25151e-06
 Reference value :  4.25240e-06
 Reference value :  4.25306e-06
 Reference value :  4.25371e-06
 Reference value :  4.25423e-06
 Reference value :  4.25537e-06
 Reference value :  4.25610e-06
 Reference value :  4.25838e-06
 Reference value :  4.26780e-06
 Reference value :  4.32293e-06
 Reference value :  4.49752e-06
 Reference value :  4.50001e-06
 Reference value :  4.50003e-06
 Reference value :  4.50010e-06
 Reference value :  4.50012e-06
 Reference value :  4.50022e-06
 Reference value :  4.50057e-06
 Reference value :  4.50096e-06
 Reference value :  4.50138e-06
 Reference value :  4.50185e-06
 Reference value :  4.50294e-06
 Reference value :  4.50347e-06
 Reference value :  4.50468e-06
 Reference value :  4.50603e-06
 Reference value :  4.50772e-06
 Reference value :  4.50859e-06
 Reference value :  4.51063e-06
 Reference value :  4.51203e-06
 Reference value :  4.51614e-06
 Reference value :  4.52648e-06
 Reference value :  4.55835e-06
 Reference value :  4.68172e-06
 Reference value :  4.75011e-06
 Reference value :  4.75017e-06
 Reference value :  4.75021e-06
 Reference value :  4.75022e-06
 Reference value :  4.75032e-06
 Reference value :  4.75042e-06
 Reference value :  4.75082e-06
 Reference value :  4.75151e-06
 Reference value :  4.75239e-06
 Reference value :  4.75306e-06
 Reference value :  4.75373e-06
 Reference value :  4.75425e-06
 Reference value :  4.75485e-06
 Reference value :  4.75616e-06
 Reference value :  4.75867e-06
 Reference value :  4.76340e-06
 Reference value :  4.77834e-06
 Reference value :  4.83399e-06
 Reference value :  4.94202e-06
 Reference value :  5.00001e-06
 Reference value :  5.00003e-06
 Reference value :  5.00007e-06
 Reference value :  5.00010e-06
 Reference value :  5.00012e-06
 Reference value :  5.00022e-06
 Reference value :  5.00057e-06
 Reference value :  5.00096e-06
 Reference value :  5.00138e-06
 Reference value :  5.00185e-06
 Reference value :  5.00294e-06
 Reference value :  5.00349e-06
 Reference value :  5.00408e-06
 Reference value :  5.00474e-06
 Reference value :  5.00530e-06
 Reference value :  5.00662e-06
 Reference value :  5.00849e-06
 Reference value :  5.01063e-06
 Reference value :  5.01172e-06
 Reference value :  5.01285e-06
 Reference value :  5.01371e-06
 Reference value :  5.01453e-06
 Reference value :  5.01551e-06
 Reference value :  5.01653e-06
 Reference value :  5.01847e-06
 Reference value :  5.02133e-06
 Reference value :  5.02765e-06
 Reference value :  5.03248e-06
 Reference value :  5.04147e-06
 Reference value :  5.04429e-06
 Reference value :  5.05015e-06
 Reference value :  5.05831e-06
 Reference value :  5.07211e-06
 Reference value :  5.09930e-06
 Reference value :  5.15475e-06
 Reference value :  5.20158e-06
 Reference value :  5.25011e-06
 Reference value :  5.25017e-06
 Reference value :  5.25020e-06
 Reference value :  5.25022e-06
 Reference value :  5.25032e-06
 Reference value :  5.25061e-06
 Reference value :  5.25079e-06
 Reference value :  5.25110e-06
 Reference value :  5.25152e-06
 Reference value :  5.25196e-06
 Reference value :  5.25242e-06
 Reference value :  5.25377e-06
 Reference value :  5.25430e-06
 Reference value :  5.25491e-06
 Reference value :  5.25622e-06
 Reference value :  5.25853e-06
 Reference value :  5.26081e-06
 Reference value :  5.26850e-06
 Reference value :  5.39860e-06
 Reference value :  5.50001e-06
 Reference value :  5.50007e-06
 Reference value :  5.50011e-06
 Reference value :  5.50016e-06
 Reference value :  5.50034e-06
 Reference value :  5.50057e-06
 Reference value :  5.50138e-06
 Reference value :  5.50185e-06
 Reference value :  5.50294e-06
 Reference value :  5.50348e-06
 Reference value :  5.50473e-06
 Reference value :  5.50548e-06
 Reference value :  5.50606e-06
 Reference value :  5.50679e-06
 Reference value :  5.50858e-06
 Reference value :  5.50961e-06
 Reference value :  5.51058e-06
 Reference value :  5.51190e-06
 Reference value :  5.51584e-06
 Reference value :  5.52564e-06
 Reference value :  5.53620e-06
 Reference value :  5.59048e-06
 Reference value :  5.75010e-06
 Reference value :  5.75013e-06
 Reference value :  5.75020e-06
 Reference value :  5.75022e-06
 Reference value :  5.75032e-06
 Reference value :  5.75061e-06
 Reference value :  5.75082e-06
 Reference value :  5.75111e-06
 Reference value :  5.75151e-06
 Reference value :  5.75195e-06
 Reference value :  5.75240e-06
 Reference value :  5.75306e-06
 Reference value :  5.75374e-06
 Reference value :  5.75426e-06
 Reference value :  5.75544e-06
 Reference value :  5.75617e-06
 Reference value :  5.75845e-06
 Reference value :  5.76353e-06
 Reference value :  5.77700e-06
 Reference value :  5.82309e-06
 Reference value :  5.99473e-06
 Reference value :  6.00001e-06
 Reference value :  6.00007e-06
 Reference value :  6.00010e-06
 Reference value :  6.00012e-06
 Reference value :  6.00022e-06
 Reference value :  6.00057e-06
 Reference value :  6.00096e-06
 Reference value :  6.00185e-06
 Reference value :  6.00241e-06
 Reference value :  6.00294e-06
 Reference value :  6.00348e-06
 Reference value :  6.00407e-06
 Reference value :  6.00519e-06
 Reference value :  6.00576e-06
 Reference value :  6.00651e-06
 Reference value :  6.00879e-06
 Reference value :  6.01069e-06
 Reference value :  6.01216e-06
 Reference value :  6.01375e-06
 Reference value :  6.01498e-06
 Reference value :  6.01741e-06
 Reference value :  6.01996e-06
 Reference value :  6.02181e-06
 Reference value :  6.02747e-06
 Reference value :  6.03184e-06
 Reference value :  6.03612e-06
 Reference value :  6.03987e-06
 Reference value :  6.04383e-06
 Reference value :  6.04805e-06
 Reference value :  6.05826e-06
 Reference value :  6.06440e-06
 Reference value :  6.07798e-06
 Reference value :  6.10411e-06
 Reference value :  6.16676e-06
 Reference value :  6.25010e-06
 Reference value :  6.25011e-06
 Reference value :  6.25017e-06
 Reference value :  6.25021e-06
 Reference value :  6.25026e-06
 Reference value :  6.25042e-06
 Reference value :  6.25061e-06
 Reference value :  6.25110e-06
 Reference value :  6.25152e-06
 Reference value :  6.25242e-06
 Reference value :  6.25309e-06
 Reference value :  6.25373e-06
 Reference value :  6.25427e-06
 Reference value :  6.25543e-06
 Reference value :  6.25623e-06
 Reference value :  6.25708e-06
 Reference value :  6.26091e-06
 Reference value :  6.26879e-06
 Reference value :  6.29648e-06
 Reference value :  6.39744e-06
 Reference value :  6.50001e-06
 Reference value :  6.50007e-06
 Reference value :  6.50011e-06
 Reference value :  6.50016e-06
 Reference value :  6.50034e-06
 Reference value :  6.50096e-06
 Reference value :  6.50185e-06
 Reference value :  6.50241e-06
 Reference value :  6.50294e-06
 Reference value :  6.50347e-06
 Reference value :  6.50407e-06
 Reference value :  6.50545e-06
 Reference value :  6.50603e-06
 Reference value :  6.50772e-06
 Reference value :  6.50966e-06
 Reference value :  6.51202e-06
 Reference value :  6.51612e-06
 Reference value :  6.53760e-06
 Reference value :  6.59821e-06
 Reference value :  6.75011e-06
 Reference value :  6.75013e-06
 Reference value :  6.75020e-06
 Reference value :  6.75022e-06
 Reference value :  6.75032e-06
 Reference value :  6.75061e-06
 Reference value :  6.75111e-06
 Reference value :  6.75151e-06
 Reference value :  6.75240e-06
 Reference value :  6.75373e-06
 Reference value :  6.75425e-06
 Reference value :  6.75543e-06
 Reference value :  6.75616e-06
 Reference value :  6.75768e-06
 Reference value :  6.75863e-06
 Reference value :  6.76143e-06
 Reference value :  6.77092e-06
 Reference value :  6.78836e-06
 Reference value :  6.82940e-06
 Reference value :  6.92802e-06
 Reference value :  7.00001e-06
 Reference value :  7.00007e-06
 Reference value :  7.00011e-06
 Reference value :  7.00016e-06
 Reference value :  7.00034e-06
 Reference value :  7.00096e-06
 Reference value :  7.00185e-06
 Reference value :  7.00294e-06
 Reference value :  7.00349e-06
 Reference value :  7.00474e-06
 Reference value :  7.00530e-06
 Reference value :  7.00662e-06
 Reference value :  7.00849e-06
 Reference value :  7.01062e-06
 Reference value :  7.01172e-06
 Reference value :  7.01285e-06
 Reference value :  7.01371e-06
 Reference value :  7.01550e-06
 Reference value :  7.01744e-06
 Reference value :  7.01845e-06
 Reference value :  7.02133e-06
 Reference value :  7.02607e-06
 Reference value :  7.03573e-06
 Reference value :  7.07843e-06
 Reference value :  7.21121e-06
 Reference value :  7.25011e-06
 Reference value :  7.25017e-06
 Reference value :  7.25021e-06
 Reference value :  7.25026e-06
 Reference value :  7.25042e-06
 Reference value :  7.25079e-06
 Reference value :  7.25152e-06
 Reference value :  7.25242e-06
 Reference value :  7.25376e-06
 Reference value :  7.25429e-06
 Reference value :  7.25545e-06
 Reference value :  7.25621e-06
 Reference value :  7.25854e-06
 Reference value :  7.26848e-06
 Reference value :  7.29591e-06
 Reference value :  7.37721e-06
 Reference value :  7.50000e-06
 Reference value :  7.50003e-06
 Reference value :  7.50010e-06
 Reference value :  7.50012e-06
 Reference value :  7.50022e-06
 Reference value :  7.50057e-06
 Reference value :  7.50138e-06
 Reference value :  7.50241e-06
 Reference value :  7.50347e-06
 Reference value :  7.50468e-06
 Reference value :  7.50545e-06
 Reference value :  7.50603e-06
 Reference value :  7.50772e-06
 Reference value :  7.50965e-06
 Reference value :  7.51201e-06
 Reference value :  7.51990e-06
 Reference value :  7.55716e-06
 Reference value :  7.67408e-06
 Reference value :  7.75013e-06
 Reference value :  7.75020e-06
 Reference value :  7.75022e-06
 Reference value :  7.75032e-06
 Reference value :  7.75061e-06
 Reference value :  7.75111e-06
 Reference value :  7.75151e-06
 Reference value :  7.75240e-06
 Reference value :  7.75374e-06
 Reference value :  7.75426e-06
 Reference value :  7.75544e-06
 Reference value :  7.75616e-06
 Reference value :  7.75771e-06
 Reference value :  7.75981e-06
 Reference value :  7.76706e-06
 Reference value :  7.77958e-06
 Reference value :  7.84112e-06
 Reference value :  7.96357e-06
 Reference value :  8.00003e-06
 Reference value :  8.00010e-06
 Reference value :  8.00012e-06
 Reference value :  8.00022e-06
 Reference value :  8.00057e-06
 Reference value :  8.00138e-06
 Reference value :  8.00241e-06
 Reference value :  8.00350e-06
 Reference value :  8.00475e-06
 Reference value :  8.00530e-06
 Reference value :  8.00664e-06
 Reference value :  8.00820e-06
 Reference value :  8.00978e-06
 Reference value :  8.01162e-06
 Reference value :  8.01437e-06
 Reference value :  8.01837e-06
 Reference value :  8.02093e-06
 Reference value :  8.02404e-06
 Reference value :  8.02621e-06
 Reference value :  8.03199e-06
 Reference value :  8.03967e-06
 Reference value :  8.05702e-06
 Reference value :  8.09745e-06
 Reference value :  8.19793e-06
 Reference value :  8.25011e-06
 Reference value :  8.25017e-06
 Reference value :  8.25021e-06
 Reference value :  8.25026e-06
 Reference value :  8.25045e-06
 Reference value :  8.25083e-06
 Reference value :  8.25160e-06
 Reference value :  8.25251e-06
 Reference value :  8.25324e-06
 Reference value :  8.25395e-06
 Reference value :  8.25580e-06
 Reference value :  8.25845e-06
 Reference value :  8.26703e-06
 Reference value :  8.28994e-06
 Reference value :  8.50000e-06
 Reference value :  8.50007e-06
 Reference value :  8.50012e-06
 Reference value :  8.50022e-06
 Reference value :  8.50057e-06
 Reference value :  8.50141e-06
 Reference value :  8.50248e-06
 Reference value :  8.50367e-06
 Reference value :  8.50427e-06
 Reference value :  8.50473e-06
 Reference value :  8.50594e-06
 Reference value :  8.50803e-06
 Reference value :  8.51279e-06
 Reference value :  8.52376e-06
 Reference value :  8.52952e-06
 Reference value :  8.53345e-06
 Reference value :  8.53659e-06
 Reference value :  8.54274e-06
 Reference value :  8.54968e-06
 Reference value :  8.55977e-06
 Reference value :  8.57627e-06
 Reference value :  8.60581e-06
 Reference value :  8.66076e-06
 Reference value :  8.75010e-06
 Reference value :  8.75013e-06
 Reference value :  8.75020e-06
 Reference value :  8.75022e-06
 Reference value :  8.75032e-06
 Reference value :  8.75063e-06
 Reference value :  8.75136e-06
 Reference value :  8.75178e-06
 Reference value :  8.75281e-06
 Reference value :  8.75352e-06
 Reference value :  8.75402e-06
 Reference value :  8.75460e-06
 Reference value :  8.75582e-06
 Reference value :  8.75800e-06
 Reference value :  8.76625e-06
 Reference value :  8.81439e-06
 Reference value :  8.97174e-06
No. of Data Rows : 1352
ngspice-44 done
