
Note: Compatibility modes selected: hs a


Circuit: ** sch_path: /home/ece/cace/sar-adc-using-sky130-pdk/runs/run_2025-09-12_03-59-47/parameters/dnl/run_0/sar_output_dnl.sch

option SCALE: Scale is set to 1e-06 for instance and model parameters
option SCALE: Scale is set to 1e-06 for instance and model parameters
option SCALE: Scale is set to 1e-06 for instance and model parameters
option SCALE: Scale is set to 1e-06 for instance and model parameters
Doing analysis at TEMP = 27.000000 and TNOM = 27.000000

Using KLU as Direct Linear Solver
Operating point simulation skipped by 'uic',
  now using transient initial conditions.
 Reference value :  1.00000e-12
 Reference value :  1.02772e-12
 Reference value :  1.08316e-12
 Reference value :  1.19404e-12
 Reference value :  1.33842e-12
 Reference value :  1.62719e-12
 Reference value :  2.20473e-12
 Reference value :  3.04017e-12
 Reference value :  3.94696e-12
 Reference value :  5.17018e-12
 Reference value :  6.92333e-12
 Reference value :  1.02718e-11
 Reference value :  1.42645e-11
 Reference value :  2.10060e-11
 Reference value :  2.79244e-11
 Reference value :  3.69612e-11
 Reference value :  4.85318e-11
 Reference value :  6.48407e-11
 Reference value :  8.62000e-11
 Reference value :  1.00000e-10
 Reference value :  1.01157e-10
 Reference value :  1.03472e-10
 Reference value :  1.08100e-10
 Reference value :  1.17358e-10
 Reference value :  1.35874e-10
 Reference value :  1.72904e-10
 Reference value :  2.46966e-10
 Reference value :  3.95089e-10
 Reference value :  5.54542e-10
 Reference value :  8.12939e-10
 Reference value :  1.15566e-09
 Reference value :  1.56004e-09
 Reference value :  2.20122e-09
 Reference value :  2.86431e-09
 Reference value :  3.93150e-09
 Reference value :  4.76617e-09
 Reference value :  5.65939e-09
 Reference value :  6.58551e-09
 Reference value :  7.58093e-09
 Reference value :  8.78538e-09
 Reference value :  9.86410e-09
 Reference value :  1.07324e-08
 Reference value :  1.16634e-08
 Reference value :  1.26020e-08
 Reference value :  1.37150e-08
 Reference value :  1.57558e-08
 Reference value :  1.85364e-08
 Reference value :  2.25749e-08
 Reference value :  2.70993e-08
 Reference value :  3.12647e-08
 Reference value :  3.51179e-08
 Reference value :  3.92975e-08
 Reference value :  4.32772e-08
 Reference value :  5.12366e-08
 Reference value :  6.48672e-08
 Reference value :  9.21284e-08
 Reference value :  1.46651e-07
 Reference value :  2.05071e-07
 Reference value :  2.50100e-07
 Reference value :  2.50110e-07
 Reference value :  2.50130e-07
 Reference value :  2.50170e-07
 Reference value :  2.50200e-07
 Reference value :  2.50201e-07
 Reference value :  2.50202e-07
 Reference value :  2.50204e-07
 Reference value :  2.50208e-07
 Reference value :  2.50216e-07
 Reference value :  2.50233e-07
 Reference value :  2.50266e-07
 Reference value :  2.50332e-07
 Reference value :  2.50438e-07
 Reference value :  2.50611e-07
 Reference value :  2.50808e-07
 Reference value :  2.51135e-07
 Reference value :  2.51582e-07
 Reference value :  2.52133e-07
 Reference value :  2.52731e-07
 Reference value :  2.53379e-07
 Reference value :  2.54229e-07
 Reference value :  2.55159e-07
 Reference value :  2.56089e-07
 Reference value :  2.56989e-07
 Reference value :  2.57972e-07
 Reference value :  2.58946e-07
 Reference value :  2.60499e-07
 Reference value :  2.62420e-07
 Reference value :  2.64909e-07
 Reference value :  2.68768e-07
 Reference value :  2.73509e-07
 Reference value :  2.82991e-07
 Reference value :  3.00570e-07
 Reference value :  3.29464e-07
 Reference value :  3.86694e-07
 Reference value :  5.00000e-07
 Reference value :  5.00010e-07
 Reference value :  5.00030e-07
 Reference value :  5.00070e-07
 Reference value :  5.00100e-07
 Reference value :  5.00104e-07
 Reference value :  5.00113e-07
 Reference value :  5.00130e-07
 Reference value :  5.00165e-07
 Reference value :  5.00234e-07
 Reference value :  5.00372e-07
 Reference value :  5.00573e-07
 Reference value :  5.00954e-07
 Reference value :  5.01538e-07
 Reference value :  5.02096e-07
 Reference value :  5.02766e-07
 Reference value :  5.03533e-07
 Reference value :  5.04331e-07
 Reference value :  5.05155e-07
 Reference value :  5.05969e-07
 Reference value :  5.07062e-07
 Reference value :  5.08130e-07
 Reference value :  5.09940e-07
 Reference value :  5.12181e-07
 Reference value :  5.14397e-07
 Reference value :  5.16701e-07
 Reference value :  5.18870e-07
 Reference value :  5.21551e-07
 Reference value :  5.24224e-07
 Reference value :  5.29330e-07
 Reference value :  5.35742e-07
 Reference value :  5.46810e-07
 Reference value :  5.66365e-07
 Reference value :  5.96606e-07
 Reference value :  6.57088e-07
 Reference value :  7.50100e-07
 Reference value :  7.50110e-07
 Reference value :  7.50130e-07
 Reference value :  7.50170e-07
 Reference value :  7.50200e-07
 Reference value :  7.50201e-07
 Reference value :  7.50202e-07
 Reference value :  7.50205e-07
 Reference value :  7.50211e-07
 Reference value :  7.50223e-07
 Reference value :  7.50247e-07
 Reference value :  7.50295e-07
 Reference value :  7.50390e-07
 Reference value :  7.50581e-07
 Reference value :  7.50959e-07
 Reference value :  7.51572e-07
 Reference value :  7.52191e-07
 Reference value :  7.52840e-07
 Reference value :  7.53541e-07
 Reference value :  7.54448e-07
 Reference value :  7.55180e-07
 Reference value :  7.56013e-07
 Reference value :  7.56742e-07
 Reference value :  7.57547e-07
 Reference value :  7.58563e-07
 Reference value :  7.59653e-07
 Reference value :  7.61835e-07
 Reference value :  7.64160e-07
 Reference value :  7.68223e-07
 Reference value :  7.72598e-07
 Reference value :  7.81348e-07
 Reference value :  7.98847e-07
 Reference value :  8.31746e-07
 Reference value :  8.97545e-07
 Reference value :  1.00000e-06
 Reference value :  1.00001e-06
 Reference value :  1.00003e-06
 Reference value :  1.00007e-06
 Reference value :  1.00010e-06
 Reference value :  1.00010e-06
 Reference value :  1.00011e-06
 Reference value :  1.00013e-06
 Reference value :  1.00016e-06
 Reference value :  1.00023e-06
 Reference value :  1.00037e-06
 Reference value :  1.00057e-06
 Reference value :  1.00095e-06
 Reference value :  1.00154e-06
 Reference value :  1.00209e-06
 Reference value :  1.00276e-06
 Reference value :  1.00353e-06
 Reference value :  1.00440e-06
 Reference value :  1.00519e-06
 Reference value :  1.00606e-06
 Reference value :  1.00684e-06
 Reference value :  1.00759e-06
 Reference value :  1.00846e-06
 Reference value :  1.00938e-06
 Reference value :  1.01056e-06
 Reference value :  1.01241e-06
 Reference value :  1.01476e-06
 Reference value :  1.01829e-06
 Reference value :  1.02070e-06
 Reference value :  1.02282e-06
 Reference value :  1.02485e-06
 Reference value :  1.02663e-06
 Reference value :  1.02849e-06
 Reference value :  1.03079e-06
 Reference value :  1.03330e-06
 Reference value :  1.03634e-06
 Reference value :  1.04062e-06
 Reference value :  1.04637e-06
 Reference value :  1.05499e-06
 Reference value :  1.06787e-06
 Reference value :  1.07748e-06
 Reference value :  1.08666e-06
 Reference value :  1.09453e-06
 Reference value :  1.10051e-06
 Reference value :  1.10728e-06
 Reference value :  1.11570e-06
 Reference value :  1.12437e-06
 Reference value :  1.13162e-06
 Reference value :  1.14085e-06
 Reference value :  1.15380e-06
 Reference value :  1.17387e-06
 Reference value :  1.20346e-06
 Reference value :  1.25010e-06
 Reference value :  1.25011e-06
 Reference value :  1.25013e-06
 Reference value :  1.25017e-06
 Reference value :  1.25020e-06
 Reference value :  1.25020e-06
 Reference value :  1.25020e-06
 Reference value :  1.25021e-06
 Reference value :  1.25021e-06
 Reference value :  1.25022e-06
 Reference value :  1.25025e-06
 Reference value :  1.25029e-06
 Reference value :  1.25039e-06
 Reference value :  1.25057e-06
 Reference value :  1.25090e-06
 Reference value :  1.25154e-06
 Reference value :  1.25213e-06
 Reference value :  1.25276e-06
 Reference value :  1.25347e-06
 Reference value :  1.25449e-06
 Reference value :  1.25523e-06
 Reference value :  1.25604e-06
 Reference value :  1.25702e-06
 Reference value :  1.25804e-06
 Reference value :  1.25914e-06
 Reference value :  1.26134e-06
 Reference value :  1.26357e-06
 Reference value :  1.26720e-06
 Reference value :  1.27142e-06
 Reference value :  1.27984e-06
 Reference value :  1.29670e-06
 Reference value :  1.32463e-06
 Reference value :  1.38050e-06
 Reference value :  1.49224e-06
 Reference value :  1.50000e-06
 Reference value :  1.50001e-06
 Reference value :  1.50003e-06
 Reference value :  1.50007e-06
 Reference value :  1.50010e-06
 Reference value :  1.50010e-06
 Reference value :  1.50011e-06
 Reference value :  1.50013e-06
 Reference value :  1.50016e-06
 Reference value :  1.50023e-06
 Reference value :  1.50037e-06
 Reference value :  1.50057e-06
 Reference value :  1.50093e-06
 Reference value :  1.50144e-06
 Reference value :  1.50196e-06
 Reference value :  1.50257e-06
 Reference value :  1.50328e-06
 Reference value :  1.50403e-06
 Reference value :  1.50495e-06
 Reference value :  1.50586e-06
 Reference value :  1.50686e-06
 Reference value :  1.50811e-06
 Reference value :  1.50936e-06
 Reference value :  1.51067e-06
 Reference value :  1.51200e-06
 Reference value :  1.51365e-06
 Reference value :  1.51502e-06
 Reference value :  1.51662e-06
 Reference value :  1.51816e-06
 Reference value :  1.51995e-06
 Reference value :  1.52353e-06
 Reference value :  1.52952e-06
 Reference value :  1.53971e-06
 Reference value :  1.56009e-06
 Reference value :  1.60084e-06
 Reference value :  1.68235e-06
 Reference value :  1.75010e-06
 Reference value :  1.75011e-06
 Reference value :  1.75013e-06
 Reference value :  1.75017e-06
 Reference value :  1.75020e-06
 Reference value :  1.75020e-06
 Reference value :  1.75020e-06
 Reference value :  1.75021e-06
 Reference value :  1.75021e-06
 Reference value :  1.75022e-06
 Reference value :  1.75025e-06
 Reference value :  1.75029e-06
 Reference value :  1.75039e-06
 Reference value :  1.75057e-06
 Reference value :  1.75090e-06
 Reference value :  1.75156e-06
 Reference value :  1.75215e-06
 Reference value :  1.75278e-06
 Reference value :  1.75348e-06
 Reference value :  1.75439e-06
 Reference value :  1.75514e-06
 Reference value :  1.75599e-06
 Reference value :  1.75671e-06
 Reference value :  1.75752e-06
 Reference value :  1.75855e-06
 Reference value :  1.75965e-06
 Reference value :  1.76078e-06
 Reference value :  1.76247e-06
 Reference value :  1.76454e-06
 Reference value :  1.76717e-06
 Reference value :  1.77073e-06
 Reference value :  1.77526e-06
 Reference value :  1.78433e-06
 Reference value :  1.79842e-06
 Reference value :  1.82659e-06
 Reference value :  1.88295e-06
 Reference value :  1.99566e-06
 Reference value :  2.00000e-06
 Reference value :  2.00001e-06
 Reference value :  2.00003e-06
 Reference value :  2.00007e-06
 Reference value :  2.00010e-06
 Reference value :  2.00010e-06
 Reference value :  2.00011e-06
 Reference value :  2.00013e-06
 Reference value :  2.00017e-06
 Reference value :  2.00023e-06
 Reference value :  2.00037e-06
 Reference value :  2.00057e-06
 Reference value :  2.00093e-06
 Reference value :  2.00145e-06
 Reference value :  2.00198e-06
 Reference value :  2.00262e-06
 Reference value :  2.00338e-06
 Reference value :  2.00415e-06
 Reference value :  2.00498e-06
 Reference value :  2.00570e-06
 Reference value :  2.00649e-06
 Reference value :  2.00720e-06
 Reference value :  2.00804e-06
 Reference value :  2.00883e-06
 Reference value :  2.00991e-06
 Reference value :  2.01108e-06
 Reference value :  2.01313e-06
 Reference value :  2.01599e-06
 Reference value :  2.01790e-06
 Reference value :  2.02002e-06
 Reference value :  2.02197e-06
 Reference value :  2.02343e-06
 Reference value :  2.02481e-06
 Reference value :  2.02603e-06
 Reference value :  2.02740e-06
 Reference value :  2.02903e-06
 Reference value :  2.03098e-06
 Reference value :  2.03375e-06
 Reference value :  2.03717e-06
 Reference value :  2.04400e-06
 Reference value :  2.05450e-06
 Reference value :  2.07247e-06
 Reference value :  2.10414e-06
 Reference value :  2.15627e-06
 Reference value :  2.22024e-06
 Reference value :  2.25010e-06
 Reference value :  2.25011e-06
 Reference value :  2.25013e-06
 Reference value :  2.25017e-06
 Reference value :  2.25020e-06
 Reference value :  2.25020e-06
 Reference value :  2.25020e-06
 Reference value :  2.25021e-06
 Reference value :  2.25021e-06
 Reference value :  2.25022e-06
 Reference value :  2.25025e-06
 Reference value :  2.25029e-06
 Reference value :  2.25039e-06
 Reference value :  2.25058e-06
 Reference value :  2.25091e-06
 Reference value :  2.25157e-06
 Reference value :  2.25217e-06
 Reference value :  2.25281e-06
 Reference value :  2.25351e-06
 Reference value :  2.25441e-06
 Reference value :  2.25513e-06
 Reference value :  2.25595e-06
 Reference value :  2.25680e-06
 Reference value :  2.25768e-06
 Reference value :  2.25885e-06
 Reference value :  2.26068e-06
 Reference value :  2.26317e-06
 Reference value :  2.26616e-06
 Reference value :  2.27050e-06
 Reference value :  2.27688e-06
 Reference value :  2.28965e-06
 Reference value :  2.31518e-06
 Reference value :  2.36624e-06
 Reference value :  2.41923e-06
 Reference value :  2.48088e-06
 Reference value :  2.50000e-06
 Reference value :  2.50001e-06
 Reference value :  2.50003e-06
 Reference value :  2.50007e-06
 Reference value :  2.50010e-06
 Reference value :  2.50010e-06
 Reference value :  2.50011e-06
 Reference value :  2.50013e-06
 Reference value :  2.50017e-06
 Reference value :  2.50023e-06
 Reference value :  2.50037e-06
 Reference value :  2.50057e-06
 Reference value :  2.50093e-06
 Reference value :  2.50145e-06
 Reference value :  2.50198e-06
 Reference value :  2.50259e-06
 Reference value :  2.50330e-06
 Reference value :  2.50406e-06
 Reference value :  2.50498e-06
 Reference value :  2.50591e-06
 Reference value :  2.50689e-06
 Reference value :  2.50813e-06
 Reference value :  2.50934e-06
 Reference value :  2.51064e-06
 Reference value :  2.51197e-06
 Reference value :  2.51359e-06
 Reference value :  2.51494e-06
 Reference value :  2.51651e-06
 Reference value :  2.51804e-06
 Reference value :  2.51981e-06
 Reference value :  2.52335e-06
 Reference value :  2.52928e-06
 Reference value :  2.53972e-06
 Reference value :  2.56059e-06
 Reference value :  2.60234e-06
 Reference value :  2.68584e-06
 Reference value :  2.75010e-06
 Reference value :  2.75011e-06
 Reference value :  2.75013e-06
 Reference value :  2.75017e-06
 Reference value :  2.75020e-06
 Reference value :  2.75020e-06
 Reference value :  2.75020e-06
 Reference value :  2.75021e-06
 Reference value :  2.75021e-06
 Reference value :  2.75022e-06
 Reference value :  2.75025e-06
 Reference value :  2.75029e-06
 Reference value :  2.75039e-06
 Reference value :  2.75057e-06
 Reference value :  2.75090e-06
 Reference value :  2.75156e-06
 Reference value :  2.75215e-06
 Reference value :  2.75278e-06
 Reference value :  2.75349e-06
 Reference value :  2.75440e-06
 Reference value :  2.75514e-06
 Reference value :  2.75598e-06
 Reference value :  2.75670e-06
 Reference value :  2.75751e-06
 Reference value :  2.75854e-06
 Reference value :  2.75965e-06
 Reference value :  2.76077e-06
 Reference value :  2.76249e-06
 Reference value :  2.76449e-06
 Reference value :  2.76718e-06
 Reference value :  2.77068e-06
 Reference value :  2.77526e-06
 Reference value :  2.78442e-06
 Reference value :  2.79765e-06
 Reference value :  2.82411e-06
 Reference value :  2.87703e-06
 Reference value :  2.98287e-06
 Reference value :  3.00000e-06
 Reference value :  3.00001e-06
 Reference value :  3.00003e-06
 Reference value :  3.00007e-06
 Reference value :  3.00010e-06
 Reference value :  3.00010e-06
 Reference value :  3.00011e-06
 Reference value :  3.00013e-06
 Reference value :  3.00017e-06
 Reference value :  3.00023e-06
 Reference value :  3.00037e-06
 Reference value :  3.00057e-06
 Reference value :  3.00093e-06
 Reference value :  3.00145e-06
 Reference value :  3.00198e-06
 Reference value :  3.00262e-06
 Reference value :  3.00338e-06
 Reference value :  3.00415e-06
 Reference value :  3.00498e-06
 Reference value :  3.00572e-06
 Reference value :  3.00650e-06
 Reference value :  3.00723e-06
 Reference value :  3.00806e-06
 Reference value :  3.00887e-06
 Reference value :  3.00995e-06
 Reference value :  3.01115e-06
 Reference value :  3.01296e-06
 Reference value :  3.01491e-06
 Reference value :  3.01658e-06
 Reference value :  3.01831e-06
 Reference value :  3.02019e-06
 Reference value :  3.02172e-06
 Reference value :  3.02324e-06
 Reference value :  3.02505e-06
 Reference value :  3.02677e-06
 Reference value :  3.02833e-06
 Reference value :  3.03043e-06
 Reference value :  3.03314e-06
 Reference value :  3.03595e-06
 Reference value :  3.04083e-06
 Reference value :  3.04733e-06
 Reference value :  3.05762e-06
 Reference value :  3.07419e-06
 Reference value :  3.08895e-06
 Reference value :  3.10227e-06
 Reference value :  3.10877e-06
 Reference value :  3.11505e-06
 Reference value :  3.12149e-06
 Reference value :  3.13174e-06
 Reference value :  3.14483e-06
 Reference value :  3.16247e-06
 Reference value :  3.18001e-06
 Reference value :  3.21508e-06
 Reference value :  3.25010e-06
 Reference value :  3.25011e-06
 Reference value :  3.25013e-06
 Reference value :  3.25017e-06
 Reference value :  3.25020e-06
 Reference value :  3.25020e-06
 Reference value :  3.25020e-06
 Reference value :  3.25021e-06
 Reference value :  3.25021e-06
 Reference value :  3.25022e-06
 Reference value :  3.25025e-06
 Reference value :  3.25029e-06
 Reference value :  3.25039e-06
 Reference value :  3.25058e-06
 Reference value :  3.25091e-06
 Reference value :  3.25157e-06
 Reference value :  3.25217e-06
 Reference value :  3.25281e-06
 Reference value :  3.25352e-06
 Reference value :  3.25441e-06
 Reference value :  3.25514e-06
 Reference value :  3.25597e-06
 Reference value :  3.25682e-06
 Reference value :  3.25770e-06
 Reference value :  3.25890e-06
 Reference value :  3.26070e-06
 Reference value :  3.26318e-06
 Reference value :  3.26620e-06
 Reference value :  3.27053e-06
 Reference value :  3.27700e-06
 Reference value :  3.28994e-06
 Reference value :  3.31582e-06
 Reference value :  3.36757e-06
 Reference value :  3.47108e-06
 Reference value :  3.50000e-06
 Reference value :  3.50001e-06
 Reference value :  3.50003e-06
 Reference value :  3.50007e-06
 Reference value :  3.50010e-06
 Reference value :  3.50010e-06
 Reference value :  3.50011e-06
 Reference value :  3.50013e-06
 Reference value :  3.50016e-06
 Reference value :  3.50023e-06
 Reference value :  3.50037e-06
 Reference value :  3.50057e-06
 Reference value :  3.50093e-06
 Reference value :  3.50143e-06
 Reference value :  3.50196e-06
 Reference value :  3.50260e-06
 Reference value :  3.50337e-06
 Reference value :  3.50412e-06
 Reference value :  3.50493e-06
 Reference value :  3.50582e-06
 Reference value :  3.50674e-06
 Reference value :  3.50783e-06
 Reference value :  3.50918e-06
 Reference value :  3.51038e-06
 Reference value :  3.51164e-06
 Reference value :  3.51347e-06
 Reference value :  3.51494e-06
 Reference value :  3.51654e-06
 Reference value :  3.51812e-06
 Reference value :  3.51997e-06
 Reference value :  3.52350e-06
 Reference value :  3.52857e-06
 Reference value :  3.53870e-06
 Reference value :  3.55896e-06
 Reference value :  3.59949e-06
 Reference value :  3.68055e-06
 Reference value :  3.75010e-06
 Reference value :  3.75011e-06
 Reference value :  3.75013e-06
 Reference value :  3.75017e-06
 Reference value :  3.75020e-06
 Reference value :  3.75020e-06
 Reference value :  3.75020e-06
 Reference value :  3.75021e-06
 Reference value :  3.75021e-06
 Reference value :  3.75022e-06
 Reference value :  3.75025e-06
 Reference value :  3.75029e-06
 Reference value :  3.75039e-06
 Reference value :  3.75057e-06
 Reference value :  3.75090e-06
 Reference value :  3.75156e-06
 Reference value :  3.75215e-06
 Reference value :  3.75279e-06
 Reference value :  3.75349e-06
 Reference value :  3.75440e-06
 Reference value :  3.75514e-06
 Reference value :  3.75597e-06
 Reference value :  3.75669e-06
 Reference value :  3.75749e-06
 Reference value :  3.75852e-06
 Reference value :  3.75962e-06
 Reference value :  3.76182e-06
 Reference value :  3.76412e-06
 Reference value :  3.76819e-06
 Reference value :  3.77254e-06
 Reference value :  3.78123e-06
 Reference value :  3.79861e-06
 Reference value :  3.83338e-06
 Reference value :  3.90292e-06
 Reference value :  4.00000e-06
 Reference value :  4.00001e-06
 Reference value :  4.00003e-06
 Reference value :  4.00007e-06
 Reference value :  4.00010e-06
 Reference value :  4.00010e-06
 Reference value :  4.00011e-06
 Reference value :  4.00013e-06
 Reference value :  4.00016e-06
 Reference value :  4.00023e-06
 Reference value :  4.00037e-06
 Reference value :  4.00057e-06
 Reference value :  4.00093e-06
 Reference value :  4.00143e-06
 Reference value :  4.00196e-06
 Reference value :  4.00260e-06
 Reference value :  4.00337e-06
 Reference value :  4.00412e-06
 Reference value :  4.00497e-06
 Reference value :  4.00572e-06
 Reference value :  4.00654e-06
 Reference value :  4.00744e-06
 Reference value :  4.00836e-06
 Reference value :  4.00934e-06
 Reference value :  4.01064e-06
 Reference value :  4.01218e-06
 Reference value :  4.01457e-06
 Reference value :  4.01792e-06
 Reference value :  4.02025e-06
 Reference value :  4.02227e-06
 Reference value :  4.02419e-06
 Reference value :  4.02611e-06
 Reference value :  4.02794e-06
 Reference value :  4.03024e-06
 Reference value :  4.03235e-06
 Reference value :  4.03535e-06
 Reference value :  4.03874e-06
 Reference value :  4.04395e-06
 Reference value :  4.05151e-06
 Reference value :  4.05943e-06
 Reference value :  4.06732e-06
 Reference value :  4.07511e-06
 Reference value :  4.08079e-06
 Reference value :  4.08637e-06
 Reference value :  4.09390e-06
 Reference value :  4.10124e-06
 Reference value :  4.11009e-06
 Reference value :  4.11935e-06
 Reference value :  4.12770e-06
 Reference value :  4.14439e-06
 Reference value :  4.16292e-06
 Reference value :  4.19227e-06
 Reference value :  4.23816e-06
 Reference value :  4.25010e-06
 Reference value :  4.25011e-06
 Reference value :  4.25013e-06
 Reference value :  4.25017e-06
 Reference value :  4.25020e-06
 Reference value :  4.25020e-06
 Reference value :  4.25020e-06
 Reference value :  4.25021e-06
 Reference value :  4.25021e-06
 Reference value :  4.25022e-06
 Reference value :  4.25025e-06
 Reference value :  4.25029e-06
 Reference value :  4.25039e-06
 Reference value :  4.25058e-06
 Reference value :  4.25091e-06
 Reference value :  4.25157e-06
 Reference value :  4.25217e-06
 Reference value :  4.25282e-06
 Reference value :  4.25352e-06
 Reference value :  4.25442e-06
 Reference value :  4.25512e-06
 Reference value :  4.25592e-06
 Reference value :  4.25677e-06
 Reference value :  4.25766e-06
 Reference value :  4.25881e-06
 Reference value :  4.26073e-06
 Reference value :  4.26320e-06
 Reference value :  4.26623e-06
 Reference value :  4.27055e-06
 Reference value :  4.27692e-06
 Reference value :  4.28964e-06
 Reference value :  4.31509e-06
 Reference value :  4.36598e-06
 Reference value :  4.46777e-06
 Reference value :  4.50000e-06
 Reference value :  4.50001e-06
 Reference value :  4.50003e-06
 Reference value :  4.50007e-06
 Reference value :  4.50010e-06
 Reference value :  4.50010e-06
 Reference value :  4.50011e-06
 Reference value :  4.50013e-06
 Reference value :  4.50016e-06
 Reference value :  4.50023e-06
 Reference value :  4.50037e-06
 Reference value :  4.50057e-06
 Reference value :  4.50093e-06
 Reference value :  4.50143e-06
 Reference value :  4.50196e-06
 Reference value :  4.50256e-06
 Reference value :  4.50327e-06
 Reference value :  4.50402e-06
 Reference value :  4.50494e-06
 Reference value :  4.50583e-06
 Reference value :  4.50683e-06
 Reference value :  4.50798e-06
 Reference value :  4.50916e-06
 Reference value :  4.51038e-06
 Reference value :  4.51164e-06
 Reference value :  4.51326e-06
 Reference value :  4.51469e-06
 Reference value :  4.51622e-06
 Reference value :  4.51787e-06
 Reference value :  4.51974e-06
 Reference value :  4.52317e-06
 Reference value :  4.52820e-06
 Reference value :  4.53818e-06
 Reference value :  4.55723e-06
 Reference value :  4.59391e-06
 Reference value :  4.66727e-06
 Reference value :  4.75010e-06
 Reference value :  4.75011e-06
 Reference value :  4.75013e-06
 Reference value :  4.75017e-06
 Reference value :  4.75020e-06
 Reference value :  4.75020e-06
 Reference value :  4.75020e-06
 Reference value :  4.75021e-06
 Reference value :  4.75021e-06
 Reference value :  4.75022e-06
 Reference value :  4.75025e-06
 Reference value :  4.75029e-06
 Reference value :  4.75039e-06
 Reference value :  4.75057e-06
 Reference value :  4.75090e-06
 Reference value :  4.75155e-06
 Reference value :  4.75215e-06
 Reference value :  4.75278e-06
 Reference value :  4.75348e-06
 Reference value :  4.75440e-06
 Reference value :  4.75514e-06
 Reference value :  4.75598e-06
 Reference value :  4.75671e-06
 Reference value :  4.75751e-06
 Reference value :  4.75855e-06
 Reference value :  4.75965e-06
 Reference value :  4.76079e-06
 Reference value :  4.76247e-06
 Reference value :  4.76455e-06
 Reference value :  4.76718e-06
 Reference value :  4.77076e-06
 Reference value :  4.77530e-06
 Reference value :  4.78436e-06
 Reference value :  4.79842e-06
 Reference value :  4.82654e-06
 Reference value :  4.88277e-06
 Reference value :  4.99523e-06
 Reference value :  5.00000e-06
 Reference value :  5.00001e-06
 Reference value :  5.00003e-06
 Reference value :  5.00007e-06
 Reference value :  5.00010e-06
 Reference value :  5.00010e-06
 Reference value :  5.00011e-06
 Reference value :  5.00013e-06
 Reference value :  5.00017e-06
 Reference value :  5.00023e-06
 Reference value :  5.00037e-06
 Reference value :  5.00057e-06
 Reference value :  5.00093e-06
 Reference value :  5.00145e-06
 Reference value :  5.00197e-06
 Reference value :  5.00261e-06
 Reference value :  5.00338e-06
 Reference value :  5.00414e-06
 Reference value :  5.00497e-06
 Reference value :  5.00569e-06
 Reference value :  5.00647e-06
 Reference value :  5.00720e-06
 Reference value :  5.00804e-06
 Reference value :  5.00891e-06
 Reference value :  5.00998e-06
 Reference value :  5.01133e-06
 Reference value :  5.01335e-06
 Reference value :  5.01466e-06
 Reference value :  5.01619e-06
 Reference value :  5.01783e-06
 Reference value :  5.01946e-06
 Reference value :  5.02118e-06
 Reference value :  5.02252e-06
 Reference value :  5.02397e-06
 Reference value :  5.02524e-06
 Reference value :  5.02672e-06
 Reference value :  5.02804e-06
 Reference value :  5.02941e-06
 Reference value :  5.03109e-06
 Reference value :  5.03326e-06
 Reference value :  5.03699e-06
 Reference value :  5.04236e-06
 Reference value :  5.05179e-06
 Reference value :  5.06550e-06
 Reference value :  5.07957e-06
 Reference value :  5.09498e-06
 Reference value :  5.11262e-06
 Reference value :  5.13931e-06
 Reference value :  5.18025e-06
 Reference value :  5.23937e-06
 Reference value :  5.25010e-06
 Reference value :  5.25011e-06
 Reference value :  5.25013e-06
 Reference value :  5.25017e-06
 Reference value :  5.25020e-06
 Reference value :  5.25020e-06
 Reference value :  5.25020e-06
 Reference value :  5.25021e-06
 Reference value :  5.25021e-06
 Reference value :  5.25022e-06
 Reference value :  5.25025e-06
 Reference value :  5.25029e-06
 Reference value :  5.25039e-06
 Reference value :  5.25057e-06
 Reference value :  5.25090e-06
 Reference value :  5.25156e-06
 Reference value :  5.25216e-06
 Reference value :  5.25279e-06
 Reference value :  5.25350e-06
 Reference value :  5.25441e-06
 Reference value :  5.25516e-06
 Reference value :  5.25601e-06
 Reference value :  5.25687e-06
 Reference value :  5.25777e-06
 Reference value :  5.25896e-06
 Reference value :  5.26087e-06
 Reference value :  5.26326e-06
 Reference value :  5.26642e-06
 Reference value :  5.27070e-06
 Reference value :  5.27772e-06
 Reference value :  5.29177e-06
 Reference value :  5.31819e-06
 Reference value :  5.37102e-06
 Reference value :  5.47670e-06
 Reference value :  5.50000e-06
 Reference value :  5.50001e-06
 Reference value :  5.50003e-06
 Reference value :  5.50007e-06
 Reference value :  5.50010e-06
 Reference value :  5.50010e-06
 Reference value :  5.50011e-06
 Reference value :  5.50013e-06
 Reference value :  5.50016e-06
 Reference value :  5.50023e-06
 Reference value :  5.50037e-06
 Reference value :  5.50057e-06
 Reference value :  5.50093e-06
 Reference value :  5.50143e-06
 Reference value :  5.50196e-06
 Reference value :  5.50260e-06
 Reference value :  5.50337e-06
 Reference value :  5.50412e-06
 Reference value :  5.50493e-06
 Reference value :  5.50583e-06
 Reference value :  5.50675e-06
 Reference value :  5.50794e-06
 Reference value :  5.50912e-06
 Reference value :  5.51035e-06
 Reference value :  5.51161e-06
 Reference value :  5.51321e-06
 Reference value :  5.51470e-06
 Reference value :  5.51625e-06
 Reference value :  5.51805e-06
 Reference value :  5.52005e-06
 Reference value :  5.52358e-06
 Reference value :  5.52877e-06
 Reference value :  5.53846e-06
 Reference value :  5.55651e-06
 Reference value :  5.58988e-06
 Reference value :  5.65613e-06
 Reference value :  5.75010e-06
 Reference value :  5.75011e-06
 Reference value :  5.75013e-06
 Reference value :  5.75017e-06
 Reference value :  5.75020e-06
 Reference value :  5.75020e-06
 Reference value :  5.75020e-06
 Reference value :  5.75021e-06
 Reference value :  5.75021e-06
 Reference value :  5.75022e-06
 Reference value :  5.75025e-06
 Reference value :  5.75029e-06
 Reference value :  5.75039e-06
 Reference value :  5.75057e-06
 Reference value :  5.75090e-06
 Reference value :  5.75156e-06
 Reference value :  5.75216e-06
 Reference value :  5.75279e-06
 Reference value :  5.75350e-06
 Reference value :  5.75441e-06
 Reference value :  5.75514e-06
 Reference value :  5.75598e-06
 Reference value :  5.75670e-06
 Reference value :  5.75750e-06
 Reference value :  5.75853e-06
 Reference value :  5.75963e-06
 Reference value :  5.76182e-06
 Reference value :  5.76414e-06
 Reference value :  5.76820e-06
 Reference value :  5.77256e-06
 Reference value :  5.78127e-06
 Reference value :  5.79870e-06
 Reference value :  5.83356e-06
 Reference value :  5.90326e-06
 Reference value :  6.00000e-06
 Reference value :  6.00001e-06
 Reference value :  6.00003e-06
 Reference value :  6.00007e-06
 Reference value :  6.00010e-06
 Reference value :  6.00010e-06
 Reference value :  6.00011e-06
 Reference value :  6.00013e-06
 Reference value :  6.00016e-06
 Reference value :  6.00023e-06
 Reference value :  6.00037e-06
 Reference value :  6.00057e-06
 Reference value :  6.00093e-06
 Reference value :  6.00143e-06
 Reference value :  6.00196e-06
 Reference value :  6.00260e-06
 Reference value :  6.00337e-06
 Reference value :  6.00412e-06
 Reference value :  6.00497e-06
 Reference value :  6.00575e-06
 Reference value :  6.00655e-06
 Reference value :  6.00731e-06
 Reference value :  6.00820e-06
 Reference value :  6.00910e-06
 Reference value :  6.01026e-06
 Reference value :  6.01205e-06
 Reference value :  6.01418e-06
 Reference value :  6.01683e-06
 Reference value :  6.01900e-06
 Reference value :  6.02133e-06
 Reference value :  6.02301e-06
 Reference value :  6.02459e-06
 Reference value :  6.02590e-06
 Reference value :  6.02741e-06
 Reference value :  6.02916e-06
 Reference value :  6.03122e-06
 Reference value :  6.03392e-06
 Reference value :  6.03744e-06
 Reference value :  6.04399e-06
 Reference value :  6.05347e-06
 Reference value :  6.06294e-06
 Reference value :  6.07650e-06
 Reference value :  6.09769e-06
 Reference value :  6.12676e-06
 Reference value :  6.18490e-06
 Reference value :  6.25010e-06
 Reference value :  6.25011e-06
 Reference value :  6.25013e-06
 Reference value :  6.25017e-06
 Reference value :  6.25020e-06
 Reference value :  6.25020e-06
 Reference value :  6.25020e-06
 Reference value :  6.25021e-06
 Reference value :  6.25021e-06
 Reference value :  6.25022e-06
 Reference value :  6.25025e-06
 Reference value :  6.25029e-06
 Reference value :  6.25039e-06
 Reference value :  6.25058e-06
 Reference value :  6.25091e-06
 Reference value :  6.25157e-06
 Reference value :  6.25218e-06
 Reference value :  6.25282e-06
 Reference value :  6.25353e-06
 Reference value :  6.25442e-06
 Reference value :  6.25516e-06
 Reference value :  6.25599e-06
 Reference value :  6.25683e-06
 Reference value :  6.25772e-06
 Reference value :  6.25892e-06
 Reference value :  6.26073e-06
 Reference value :  6.26320e-06
 Reference value :  6.26625e-06
 Reference value :  6.27057e-06
 Reference value :  6.27713e-06
 Reference value :  6.29025e-06
 Reference value :  6.31609e-06
 Reference value :  6.36777e-06
 Reference value :  6.47112e-06
 Reference value :  6.50000e-06
 Reference value :  6.50001e-06
 Reference value :  6.50003e-06
 Reference value :  6.50007e-06
 Reference value :  6.50010e-06
 Reference value :  6.50010e-06
 Reference value :  6.50011e-06
 Reference value :  6.50013e-06
 Reference value :  6.50016e-06
 Reference value :  6.50023e-06
 Reference value :  6.50037e-06
 Reference value :  6.50057e-06
 Reference value :  6.50093e-06
 Reference value :  6.50143e-06
 Reference value :  6.50196e-06
 Reference value :  6.50260e-06
 Reference value :  6.50337e-06
 Reference value :  6.50412e-06
 Reference value :  6.50492e-06
 Reference value :  6.50581e-06
 Reference value :  6.50674e-06
 Reference value :  6.50783e-06
 Reference value :  6.50921e-06
 Reference value :  6.51040e-06
 Reference value :  6.51167e-06
 Reference value :  6.51353e-06
 Reference value :  6.51522e-06
 Reference value :  6.51687e-06
 Reference value :  6.51887e-06
 Reference value :  6.52107e-06
 Reference value :  6.52467e-06
 Reference value :  6.52996e-06
 Reference value :  6.53911e-06
 Reference value :  6.55555e-06
 Reference value :  6.58458e-06
 Reference value :  6.63925e-06
 Reference value :  6.73943e-06
 Reference value :  6.75010e-06
 Reference value :  6.75011e-06
 Reference value :  6.75013e-06
 Reference value :  6.75017e-06
 Reference value :  6.75020e-06
 Reference value :  6.75020e-06
 Reference value :  6.75020e-06
 Reference value :  6.75021e-06
 Reference value :  6.75021e-06
 Reference value :  6.75022e-06
 Reference value :  6.75025e-06
 Reference value :  6.75029e-06
 Reference value :  6.75039e-06
 Reference value :  6.75058e-06
 Reference value :  6.75091e-06
 Reference value :  6.75158e-06
 Reference value :  6.75219e-06
 Reference value :  6.75283e-06
 Reference value :  6.75353e-06
 Reference value :  6.75443e-06
 Reference value :  6.75514e-06
 Reference value :  6.75595e-06
 Reference value :  6.75667e-06
 Reference value :  6.75746e-06
 Reference value :  6.75847e-06
 Reference value :  6.75955e-06
 Reference value :  6.76171e-06
 Reference value :  6.76400e-06
 Reference value :  6.76801e-06
 Reference value :  6.77230e-06
 Reference value :  6.78088e-06
 Reference value :  6.79803e-06
 Reference value :  6.83235e-06
 Reference value :  6.90098e-06
 Reference value :  7.00000e-06
 Reference value :  7.00001e-06
 Reference value :  7.00003e-06
 Reference value :  7.00007e-06
 Reference value :  7.00010e-06
 Reference value :  7.00010e-06
 Reference value :  7.00011e-06
 Reference value :  7.00013e-06
 Reference value :  7.00016e-06
 Reference value :  7.00023e-06
 Reference value :  7.00037e-06
 Reference value :  7.00057e-06
 Reference value :  7.00093e-06
 Reference value :  7.00143e-06
 Reference value :  7.00196e-06
 Reference value :  7.00260e-06
 Reference value :  7.00336e-06
 Reference value :  7.00412e-06
 Reference value :  7.00497e-06
 Reference value :  7.00572e-06
 Reference value :  7.00653e-06
 Reference value :  7.00731e-06
 Reference value :  7.00826e-06
 Reference value :  7.00915e-06
 Reference value :  7.01037e-06
 Reference value :  7.01200e-06
 Reference value :  7.01424e-06
 Reference value :  7.01717e-06
 Reference value :  7.01947e-06
 Reference value :  7.02190e-06
 Reference value :  7.02367e-06
 Reference value :  7.02529e-06
 Reference value :  7.02680e-06
 Reference value :  7.02838e-06
 Reference value :  7.03020e-06
 Reference value :  7.03273e-06
 Reference value :  7.03539e-06
 Reference value :  7.04010e-06
 Reference value :  7.04439e-06
 Reference value :  7.05198e-06
 Reference value :  7.06104e-06
 Reference value :  7.07916e-06
 Reference value :  7.10797e-06
 Reference value :  7.16559e-06
 Reference value :  7.24714e-06
 Reference value :  7.25010e-06
 Reference value :  7.25011e-06
 Reference value :  7.25013e-06
 Reference value :  7.25017e-06
 Reference value :  7.25020e-06
 Reference value :  7.25020e-06
 Reference value :  7.25020e-06
 Reference value :  7.25021e-06
 Reference value :  7.25021e-06
 Reference value :  7.25022e-06
 Reference value :  7.25025e-06
 Reference value :  7.25029e-06
 Reference value :  7.25039e-06
 Reference value :  7.25058e-06
 Reference value :  7.25092e-06
 Reference value :  7.25158e-06
 Reference value :  7.25219e-06
 Reference value :  7.25284e-06
 Reference value :  7.25354e-06
 Reference value :  7.25443e-06
 Reference value :  7.25513e-06
 Reference value :  7.25593e-06
 Reference value :  7.25679e-06
 Reference value :  7.25767e-06
 Reference value :  7.25883e-06
 Reference value :  7.26071e-06
 Reference value :  7.26319e-06
 Reference value :  7.26620e-06
 Reference value :  7.27052e-06
 Reference value :  7.27697e-06
 Reference value :  7.28988e-06
 Reference value :  7.31569e-06
 Reference value :  7.36731e-06
 Reference value :  7.47056e-06
 Reference value :  7.50000e-06
 Reference value :  7.50001e-06
 Reference value :  7.50003e-06
 Reference value :  7.50007e-06
 Reference value :  7.50010e-06
 Reference value :  7.50010e-06
 Reference value :  7.50011e-06
 Reference value :  7.50013e-06
 Reference value :  7.50016e-06
 Reference value :  7.50023e-06
 Reference value :  7.50037e-06
 Reference value :  7.50056e-06
 Reference value :  7.50092e-06
 Reference value :  7.50145e-06
 Reference value :  7.50199e-06
 Reference value :  7.50264e-06
 Reference value :  7.50341e-06
 Reference value :  7.50418e-06
 Reference value :  7.50497e-06
 Reference value :  7.50594e-06
 Reference value :  7.50684e-06
 Reference value :  7.50804e-06
 Reference value :  7.50928e-06
 Reference value :  7.51052e-06
 Reference value :  7.51180e-06
 Reference value :  7.51346e-06
 Reference value :  7.51490e-06
 Reference value :  7.51644e-06
 Reference value :  7.51807e-06
 Reference value :  7.51992e-06
 Reference value :  7.52332e-06
 Reference value :  7.52826e-06
 Reference value :  7.53814e-06
 Reference value :  7.55702e-06
 Reference value :  7.59349e-06
 Reference value :  7.66644e-06
 Reference value :  7.75010e-06
 Reference value :  7.75011e-06
 Reference value :  7.75013e-06
 Reference value :  7.75017e-06
 Reference value :  7.75020e-06
 Reference value :  7.75020e-06
 Reference value :  7.75020e-06
 Reference value :  7.75021e-06
 Reference value :  7.75021e-06
 Reference value :  7.75022e-06
 Reference value :  7.75025e-06
 Reference value :  7.75029e-06
 Reference value :  7.75039e-06
 Reference value :  7.75057e-06
 Reference value :  7.75091e-06
 Reference value :  7.75157e-06
 Reference value :  7.75217e-06
 Reference value :  7.75282e-06
 Reference value :  7.75352e-06
 Reference value :  7.75442e-06
 Reference value :  7.75512e-06
 Reference value :  7.75591e-06
 Reference value :  7.75663e-06
 Reference value :  7.75741e-06
 Reference value :  7.75844e-06
 Reference value :  7.75953e-06
 Reference value :  7.76171e-06
 Reference value :  7.76402e-06
 Reference value :  7.76804e-06
 Reference value :  7.77236e-06
 Reference value :  7.78099e-06
 Reference value :  7.79825e-06
 Reference value :  7.83278e-06
 Reference value :  7.90183e-06
 Reference value :  8.00000e-06
 Reference value :  8.00001e-06
 Reference value :  8.00003e-06
 Reference value :  8.00007e-06
 Reference value :  8.00010e-06
 Reference value :  8.00010e-06
 Reference value :  8.00011e-06
 Reference value :  8.00013e-06
 Reference value :  8.00016e-06
 Reference value :  8.00023e-06
 Reference value :  8.00037e-06
 Reference value :  8.00056e-06
 Reference value :  8.00092e-06
 Reference value :  8.00145e-06
 Reference value :  8.00199e-06
 Reference value :  8.00265e-06
 Reference value :  8.00341e-06
 Reference value :  8.00418e-06
 Reference value :  8.00505e-06
 Reference value :  8.00587e-06
 Reference value :  8.00666e-06
 Reference value :  8.00742e-06
 Reference value :  8.00831e-06
 Reference value :  8.00922e-06
 Reference value :  8.01040e-06
 Reference value :  8.01220e-06
 Reference value :  8.01438e-06
 Reference value :  8.01717e-06
 Reference value :  8.01983e-06
 Reference value :  8.02252e-06
 Reference value :  8.02523e-06
 Reference value :  8.02812e-06
 Reference value :  8.03391e-06
 Reference value :  8.04245e-06
 Reference value :  8.05443e-06
 Reference value :  8.07670e-06
 Reference value :  8.12123e-06
 Reference value :  8.21030e-06
 Reference value :  8.25010e-06
 Reference value :  8.25011e-06
 Reference value :  8.25013e-06
 Reference value :  8.25017e-06
 Reference value :  8.25020e-06
 Reference value :  8.25020e-06
 Reference value :  8.25020e-06
 Reference value :  8.25021e-06
 Reference value :  8.25021e-06
 Reference value :  8.25022e-06
 Reference value :  8.25025e-06
 Reference value :  8.25029e-06
 Reference value :  8.25039e-06
 Reference value :  8.25057e-06
 Reference value :  8.25095e-06
 Reference value :  8.25158e-06
 Reference value :  8.25221e-06
 Reference value :  8.25286e-06
 Reference value :  8.25356e-06
 Reference value :  8.25444e-06
 Reference value :  8.25540e-06
 Reference value :  8.25662e-06
 Reference value :  8.25791e-06
 Reference value :  8.25938e-06
 Reference value :  8.26204e-06
 Reference value :  8.26458e-06
 Reference value :  8.26859e-06
 Reference value :  8.27333e-06
 Reference value :  8.28281e-06
 Reference value :  8.30177e-06
 Reference value :  8.33968e-06
 Reference value :  8.41552e-06
 Reference value :  8.50000e-06
 Reference value :  8.50000e-06
 Reference value :  8.50000e-06
 Reference value :  8.50000e-06
 Reference value :  8.50000e-06
 Reference value :  8.50000e-06
 Reference value :  8.50000e-06
 Reference value :  8.50000e-06
 Reference value :  8.50001e-06
 Reference value :  8.50001e-06
 Reference value :  8.50002e-06
 Reference value :  8.50004e-06
 Reference value :  8.50008e-06
 Reference value :  8.50010e-06
 Reference value :  8.50010e-06
 Reference value :  8.50011e-06
 Reference value :  8.50012e-06
 Reference value :  8.50014e-06
 Reference value :  8.50018e-06
 Reference value :  8.50026e-06
 Reference value :  8.50042e-06
 Reference value :  8.50074e-06
 Reference value :  8.50127e-06
 Reference value :  8.50184e-06
 Reference value :  8.50268e-06
 Reference value :  8.50347e-06
 Reference value :  8.50424e-06
 Reference value :  8.50514e-06
 Reference value :  8.50596e-06
 Reference value :  8.50716e-06
 Reference value :  8.50872e-06
 Reference value :  8.51040e-06
 Reference value :  8.51199e-06
 Reference value :  8.51370e-06
 Reference value :  8.51557e-06
 Reference value :  8.51859e-06
 Reference value :  8.52179e-06
 Reference value :  8.52820e-06
 Reference value :  8.53497e-06
 Reference value :  8.53966e-06
 Reference value :  8.54396e-06
 Reference value :  8.54717e-06
 Reference value :  8.55010e-06
 Reference value :  8.55251e-06
 Reference value :  8.55502e-06
 Reference value :  8.55736e-06
 Reference value :  8.56095e-06
 Reference value :  8.56448e-06
 Reference value :  8.56786e-06
 Reference value :  8.57296e-06
 Reference value :  8.57910e-06
 Reference value :  8.58891e-06
 Reference value :  8.59887e-06
 Reference value :  8.61544e-06
 Reference value :  8.63675e-06
 Reference value :  8.66614e-06
 Reference value :  8.69207e-06
 Reference value :  8.72004e-06
 Reference value :  8.75010e-06
 Reference value :  8.75011e-06
 Reference value :  8.75013e-06
 Reference value :  8.75017e-06
 Reference value :  8.75020e-06
 Reference value :  8.75020e-06
 Reference value :  8.75020e-06
 Reference value :  8.75021e-06
 Reference value :  8.75021e-06
 Reference value :  8.75022e-06
 Reference value :  8.75025e-06
 Reference value :  8.75029e-06
 Reference value :  8.75039e-06
 Reference value :  8.75058e-06
 Reference value :  8.75096e-06
 Reference value :  8.75163e-06
 Reference value :  8.75224e-06
 Reference value :  8.75291e-06
 Reference value :  8.75360e-06
 Reference value :  8.75449e-06
 Reference value :  8.75520e-06
 Reference value :  8.75601e-06
 Reference value :  8.75684e-06
 Reference value :  8.75770e-06
 Reference value :  8.75883e-06
 Reference value :  8.76063e-06
 Reference value :  8.76333e-06
 Reference value :  8.76622e-06
 Reference value :  8.77070e-06
 Reference value :  8.77694e-06
 Reference value :  8.78942e-06
 Reference value :  8.81437e-06
 Reference value :  8.86427e-06
 Reference value :  8.96408e-06
 Reference value :  9.00000e-06
 Reference value :  9.00001e-06
 Reference value :  9.00003e-06
 Reference value :  9.00007e-06
 Reference value :  9.00010e-06
 Reference value :  9.00010e-06
 Reference value :  9.00011e-06
 Reference value :  9.00013e-06
 Reference value :  9.00016e-06
 Reference value :  9.00023e-06
 Reference value :  9.00037e-06
 Reference value :  9.00057e-06
 Reference value :  9.00095e-06
 Reference value :  9.00154e-06
 Reference value :  9.00209e-06
 Reference value :  9.00276e-06
 Reference value :  9.00352e-06
 Reference value :  9.00426e-06
 Reference value :  9.00503e-06
 Reference value :  9.00584e-06
 Reference value :  9.00675e-06
 Reference value :  9.00781e-06
 Reference value :  9.00943e-06
 Reference value :  9.01164e-06
 Reference value :  9.01414e-06
 Reference value :  9.01612e-06
 Reference value :  9.01826e-06
 Reference value :  9.02031e-06
 Reference value :  9.02302e-06
 Reference value :  9.02659e-06
 Reference value :  9.03175e-06
 Reference value :  9.03957e-06
 Reference value :  9.05238e-06
 Reference value :  9.07233e-06
 Reference value :  9.10533e-06
 Reference value :  9.15891e-06
 Reference value :  9.24670e-06
 Reference value :  9.25010e-06
 Reference value :  9.25011e-06
 Reference value :  9.25013e-06
 Reference value :  9.25017e-06
 Reference value :  9.25020e-06
 Reference value :  9.25020e-06
 Reference value :  9.25020e-06
 Reference value :  9.25021e-06
 Reference value :  9.25021e-06
 Reference value :  9.25022e-06
 Reference value :  9.25025e-06
 Reference value :  9.25029e-06
 Reference value :  9.25039e-06
 Reference value :  9.25058e-06
 Reference value :  9.25096e-06
 Reference value :  9.25157e-06
 Reference value :  9.25219e-06
 Reference value :  9.25284e-06
 Reference value :  9.25354e-06
 Reference value :  9.25445e-06
 Reference value :  9.25517e-06
 Reference value :  9.25600e-06
 Reference value :  9.25673e-06
 Reference value :  9.25753e-06
 Reference value :  9.25860e-06
 Reference value :  9.25973e-06
 Reference value :  9.26198e-06
 Reference value :  9.26435e-06
 Reference value :  9.26846e-06
 Reference value :  9.27293e-06
 Reference value :  9.28187e-06
 Reference value :  9.29974e-06
 Reference value :  9.33549e-06
 Reference value :  9.40699e-06
 Reference value :  9.50000e-06
 Reference value :  9.50001e-06
 Reference value :  9.50003e-06
 Reference value :  9.50007e-06
 Reference value :  9.50010e-06
 Reference value :  9.50010e-06
 Reference value :  9.50011e-06
 Reference value :  9.50013e-06
 Reference value :  9.50016e-06
 Reference value :  9.50023e-06
 Reference value :  9.50037e-06
 Reference value :  9.50057e-06
 Reference value :  9.50095e-06
 Reference value :  9.50154e-06
 Reference value :  9.50209e-06
 Reference value :  9.50276e-06
 Reference value :  9.50352e-06
 Reference value :  9.50439e-06
 Reference value :  9.50519e-06
 Reference value :  9.50605e-06
 Reference value :  9.50684e-06
 Reference value :  9.50758e-06
 Reference value :  9.50846e-06
 Reference value :  9.50937e-06
 Reference value :  9.51056e-06
 Reference value :  9.51240e-06
 Reference value :  9.51474e-06
 Reference value :  9.51829e-06
 Reference value :  9.52070e-06
 Reference value :  9.52285e-06
 Reference value :  9.52490e-06
 Reference value :  9.52669e-06
 Reference value :  9.52857e-06
 Reference value :  9.53088e-06
 Reference value :  9.53344e-06
 Reference value :  9.53651e-06
 Reference value :  9.54089e-06
 Reference value :  9.54671e-06
 Reference value :  9.55547e-06
 Reference value :  9.56853e-06
 Reference value :  9.57810e-06
 Reference value :  9.58734e-06
 Reference value :  9.59534e-06
 Reference value :  9.60128e-06
 Reference value :  9.60805e-06
 Reference value :  9.61627e-06
 Reference value :  9.62485e-06
 Reference value :  9.63210e-06
 Reference value :  9.64108e-06
 Reference value :  9.65533e-06
 Reference value :  9.67713e-06
 Reference value :  9.72072e-06
 Reference value :  9.75010e-06
 Reference value :  9.75011e-06
 Reference value :  9.75013e-06
 Reference value :  9.75017e-06
 Reference value :  9.75020e-06
 Reference value :  9.75020e-06
 Reference value :  9.75020e-06
 Reference value :  9.75021e-06
 Reference value :  9.75021e-06
 Reference value :  9.75022e-06
 Reference value :  9.75025e-06
 Reference value :  9.75029e-06
 Reference value :  9.75039e-06
 Reference value :  9.75057e-06
 Reference value :  9.75090e-06
 Reference value :  9.75154e-06
 Reference value :  9.75213e-06
 Reference value :  9.75276e-06
 Reference value :  9.75347e-06
 Reference value :  9.75438e-06
 Reference value :  9.75512e-06
 Reference value :  9.75594e-06
 Reference value :  9.75681e-06
 Reference value :  9.75770e-06
 Reference value :  9.75887e-06
 Reference value :  9.76083e-06
 Reference value :  9.76325e-06
 Reference value :  9.76634e-06
 Reference value :  9.77064e-06
 Reference value :  9.77748e-06
 Reference value :  9.79114e-06
 Reference value :  9.81846e-06
 Reference value :  9.87310e-06
 Reference value :  9.98239e-06
 Reference value :  1.00000e-05
 Reference value :  1.00000e-05
 Reference value :  1.00000e-05
 Reference value :  1.00001e-05
 Reference value :  1.00001e-05
 Reference value :  1.00001e-05
 Reference value :  1.00001e-05
 Reference value :  1.00001e-05
 Reference value :  1.00002e-05
 Reference value :  1.00002e-05
 Reference value :  1.00004e-05
 Reference value :  1.00006e-05
 Reference value :  1.00009e-05
 Reference value :  1.00014e-05
 Reference value :  1.00020e-05
 Reference value :  1.00026e-05
 Reference value :  1.00033e-05
 Reference value :  1.00040e-05
 Reference value :  1.00050e-05
 Reference value :  1.00059e-05
 Reference value :  1.00069e-05
 Reference value :  1.00081e-05
 Reference value :  1.00094e-05
 Reference value :  1.00107e-05
 Reference value :  1.00120e-05
 Reference value :  1.00137e-05
 Reference value :  1.00150e-05
 Reference value :  1.00166e-05
 Reference value :  1.00182e-05
 Reference value :  1.00200e-05
 Reference value :  1.00235e-05
 Reference value :  1.00294e-05
 Reference value :  1.00396e-05
 Reference value :  1.00601e-05
 Reference value :  1.01011e-05
 Reference value :  1.01830e-05
 Reference value :  1.02501e-05
 Reference value :  1.02501e-05
 Reference value :  1.02501e-05
 Reference value :  1.02502e-05
 Reference value :  1.02502e-05
 Reference value :  1.02502e-05
 Reference value :  1.02502e-05
 Reference value :  1.02502e-05
 Reference value :  1.02502e-05
 Reference value :  1.02502e-05
 Reference value :  1.02502e-05
 Reference value :  1.02503e-05
 Reference value :  1.02504e-05
 Reference value :  1.02506e-05
 Reference value :  1.02509e-05
 Reference value :  1.02516e-05
 Reference value :  1.02521e-05
 Reference value :  1.02528e-05
 Reference value :  1.02535e-05
 Reference value :  1.02544e-05
 Reference value :  1.02551e-05
 Reference value :  1.02560e-05
 Reference value :  1.02567e-05
 Reference value :  1.02575e-05
 Reference value :  1.02586e-05
 Reference value :  1.02597e-05
 Reference value :  1.02608e-05
 Reference value :  1.02625e-05
 Reference value :  1.02645e-05
 Reference value :  1.02672e-05
 Reference value :  1.02707e-05
 Reference value :  1.02753e-05
 Reference value :  1.02843e-05
 Reference value :  1.02983e-05
 Reference value :  1.03263e-05
 Reference value :  1.03822e-05
 Reference value :  1.04940e-05
 Reference value :  1.05000e-05
 Reference value :  1.05000e-05
 Reference value :  1.05000e-05
 Reference value :  1.05001e-05
 Reference value :  1.05001e-05
 Reference value :  1.05001e-05
 Reference value :  1.05001e-05
 Reference value :  1.05001e-05
 Reference value :  1.05002e-05
 Reference value :  1.05002e-05
 Reference value :  1.05004e-05
 Reference value :  1.05006e-05
 Reference value :  1.05009e-05
 Reference value :  1.05014e-05
 Reference value :  1.05020e-05
 Reference value :  1.05026e-05
 Reference value :  1.05034e-05
 Reference value :  1.05041e-05
 Reference value :  1.05050e-05
 Reference value :  1.05057e-05
 Reference value :  1.05065e-05
 Reference value :  1.05072e-05
 Reference value :  1.05080e-05
 Reference value :  1.05088e-05
 Reference value :  1.05099e-05
 Reference value :  1.05111e-05
 Reference value :  1.05131e-05
 Reference value :  1.05160e-05
 Reference value :  1.05179e-05
 Reference value :  1.05200e-05
 Reference value :  1.05220e-05
 Reference value :  1.05234e-05
 Reference value :  1.05248e-05
 Reference value :  1.05260e-05
 Reference value :  1.05274e-05
 Reference value :  1.05290e-05
 Reference value :  1.05310e-05
 Reference value :  1.05337e-05
 Reference value :  1.05371e-05
 Reference value :  1.05439e-05
 Reference value :  1.05545e-05
 Reference value :  1.05725e-05
 Reference value :  1.06044e-05
 Reference value :  1.06569e-05
 Reference value :  1.07209e-05
 Reference value :  1.07501e-05
 Reference value :  1.07501e-05
 Reference value :  1.07501e-05
 Reference value :  1.07502e-05
 Reference value :  1.07502e-05
 Reference value :  1.07502e-05
 Reference value :  1.07502e-05
 Reference value :  1.07502e-05
 Reference value :  1.07502e-05
 Reference value :  1.07502e-05
 Reference value :  1.07502e-05
 Reference value :  1.07503e-05
 Reference value :  1.07504e-05
 Reference value :  1.07506e-05
 Reference value :  1.07509e-05
 Reference value :  1.07516e-05
 Reference value :  1.07522e-05
 Reference value :  1.07528e-05
 Reference value :  1.07535e-05
 Reference value :  1.07544e-05
 Reference value :  1.07551e-05
 Reference value :  1.07559e-05
 Reference value :  1.07568e-05
 Reference value :  1.07577e-05
 Reference value :  1.07589e-05
 Reference value :  1.07607e-05
 Reference value :  1.07632e-05
 Reference value :  1.07662e-05
 Reference value :  1.07705e-05
 Reference value :  1.07769e-05
 Reference value :  1.07896e-05
 Reference value :  1.08151e-05
 Reference value :  1.08661e-05
 Reference value :  1.09191e-05
 Reference value :  1.09808e-05
 Reference value :  1.10000e-05
 Reference value :  1.10000e-05
 Reference value :  1.10000e-05
 Reference value :  1.10001e-05
 Reference value :  1.10001e-05
 Reference value :  1.10001e-05
 Reference value :  1.10001e-05
 Reference value :  1.10001e-05
 Reference value :  1.10002e-05
 Reference value :  1.10002e-05
 Reference value :  1.10004e-05
 Reference value :  1.10006e-05
 Reference value :  1.10009e-05
 Reference value :  1.10014e-05
 Reference value :  1.10020e-05
 Reference value :  1.10026e-05
 Reference value :  1.10033e-05
 Reference value :  1.10041e-05
 Reference value :  1.10050e-05
 Reference value :  1.10059e-05
 Reference value :  1.10069e-05
 Reference value :  1.10081e-05
 Reference value :  1.10093e-05
 Reference value :  1.10106e-05
 Reference value :  1.10120e-05
 Reference value :  1.10136e-05
 Reference value :  1.10149e-05
 Reference value :  1.10165e-05
 Reference value :  1.10180e-05
 Reference value :  1.10198e-05
 Reference value :  1.10233e-05
 Reference value :  1.10292e-05
 Reference value :  1.10397e-05
 Reference value :  1.10606e-05
 Reference value :  1.11024e-05
 Reference value :  1.11861e-05
 Reference value :  1.12501e-05
 Reference value :  1.12501e-05
 Reference value :  1.12501e-05
 Reference value :  1.12502e-05
 Reference value :  1.12502e-05
 Reference value :  1.12502e-05
 Reference value :  1.12502e-05
 Reference value :  1.12502e-05
 Reference value :  1.12502e-05
 Reference value :  1.12502e-05
 Reference value :  1.12502e-05
 Reference value :  1.12503e-05
 Reference value :  1.12504e-05
 Reference value :  1.12506e-05
 Reference value :  1.12509e-05
 Reference value :  1.12516e-05
 Reference value :  1.12522e-05
 Reference value :  1.12528e-05
 Reference value :  1.12535e-05
 Reference value :  1.12544e-05
 Reference value :  1.12551e-05
 Reference value :  1.12560e-05
 Reference value :  1.12567e-05
 Reference value :  1.12575e-05
 Reference value :  1.12585e-05
 Reference value :  1.12596e-05
 Reference value :  1.12608e-05
 Reference value :  1.12625e-05
 Reference value :  1.12645e-05
 Reference value :  1.12672e-05
 Reference value :  1.12707e-05
 Reference value :  1.12753e-05
 Reference value :  1.12844e-05
 Reference value :  1.12977e-05
 Reference value :  1.13243e-05
 Reference value :  1.13774e-05
 Reference value :  1.14836e-05
 Reference value :  1.15000e-05
 Reference value :  1.15000e-05
 Reference value :  1.15000e-05
 Reference value :  1.15001e-05
 Reference value :  1.15001e-05
 Reference value :  1.15001e-05
 Reference value :  1.15001e-05
 Reference value :  1.15001e-05
 Reference value :  1.15002e-05
 Reference value :  1.15002e-05
 Reference value :  1.15004e-05
 Reference value :  1.15006e-05
 Reference value :  1.15009e-05
 Reference value :  1.15014e-05
 Reference value :  1.15020e-05
 Reference value :  1.15026e-05
 Reference value :  1.15034e-05
 Reference value :  1.15041e-05
 Reference value :  1.15050e-05
 Reference value :  1.15057e-05
 Reference value :  1.15065e-05
 Reference value :  1.15072e-05
 Reference value :  1.15081e-05
 Reference value :  1.15089e-05
 Reference value :  1.15099e-05
 Reference value :  1.15111e-05
 Reference value :  1.15130e-05
 Reference value :  1.15149e-05
 Reference value :  1.15166e-05
 Reference value :  1.15183e-05
 Reference value :  1.15202e-05
 Reference value :  1.15217e-05
 Reference value :  1.15232e-05
 Reference value :  1.15251e-05
 Reference value :  1.15268e-05
 Reference value :  1.15283e-05
 Reference value :  1.15304e-05
 Reference value :  1.15331e-05
 Reference value :  1.15359e-05
 Reference value :  1.15407e-05
 Reference value :  1.15472e-05
 Reference value :  1.15573e-05
 Reference value :  1.15700e-05
 Reference value :  1.15835e-05
 Reference value :  1.15966e-05
 Reference value :  1.16039e-05
 Reference value :  1.16110e-05
 Reference value :  1.16190e-05
 Reference value :  1.16288e-05
 Reference value :  1.16436e-05
 Reference value :  1.16603e-05
 Reference value :  1.16792e-05
 Reference value :  1.17148e-05
 Reference value :  1.17501e-05
 Reference value :  1.17501e-05
 Reference value :  1.17501e-05
 Reference value :  1.17502e-05
 Reference value :  1.17502e-05
 Reference value :  1.17502e-05
 Reference value :  1.17502e-05
 Reference value :  1.17502e-05
 Reference value :  1.17502e-05
 Reference value :  1.17502e-05
 Reference value :  1.17502e-05
 Reference value :  1.17503e-05
 Reference value :  1.17504e-05
 Reference value :  1.17506e-05
 Reference value :  1.17509e-05
 Reference value :  1.17516e-05
 Reference value :  1.17522e-05
 Reference value :  1.17528e-05
 Reference value :  1.17535e-05
 Reference value :  1.17544e-05
 Reference value :  1.17551e-05
 Reference value :  1.17560e-05
 Reference value :  1.17568e-05
 Reference value :  1.17577e-05
 Reference value :  1.17589e-05
 Reference value :  1.17607e-05
 Reference value :  1.17632e-05
 Reference value :  1.17662e-05
 Reference value :  1.17705e-05
 Reference value :  1.17770e-05
 Reference value :  1.17899e-05
 Reference value :  1.18158e-05
 Reference value :  1.18675e-05
 Reference value :  1.19709e-05
 Reference value :  1.20000e-05
 Reference value :  1.20000e-05
 Reference value :  1.20000e-05
 Reference value :  1.20001e-05
 Reference value :  1.20001e-05
 Reference value :  1.20001e-05
 Reference value :  1.20001e-05
 Reference value :  1.20001e-05
 Reference value :  1.20002e-05
 Reference value :  1.20002e-05
 Reference value :  1.20004e-05
 Reference value :  1.20006e-05
 Reference value :  1.20009e-05
 Reference value :  1.20014e-05
 Reference value :  1.20020e-05
 Reference value :  1.20026e-05
 Reference value :  1.20034e-05
 Reference value :  1.20041e-05
 Reference value :  1.20049e-05
 Reference value :  1.20058e-05
 Reference value :  1.20067e-05
 Reference value :  1.20078e-05
 Reference value :  1.20092e-05
 Reference value :  1.20104e-05
 Reference value :  1.20116e-05
 Reference value :  1.20135e-05
 Reference value :  1.20149e-05
 Reference value :  1.20165e-05
 Reference value :  1.20181e-05
 Reference value :  1.20200e-05
 Reference value :  1.20235e-05
 Reference value :  1.20285e-05
 Reference value :  1.20386e-05
 Reference value :  1.20587e-05
 Reference value :  1.20988e-05
 Reference value :  1.21789e-05
 Reference value :  1.22501e-05
 Reference value :  1.22501e-05
 Reference value :  1.22501e-05
 Reference value :  1.22502e-05
 Reference value :  1.22502e-05
 Reference value :  1.22502e-05
 Reference value :  1.22502e-05
 Reference value :  1.22502e-05
 Reference value :  1.22502e-05
 Reference value :  1.22502e-05
 Reference value :  1.22502e-05
 Reference value :  1.22503e-05
 Reference value :  1.22504e-05
 Reference value :  1.22506e-05
 Reference value :  1.22509e-05
 Reference value :  1.22516e-05
 Reference value :  1.22522e-05
 Reference value :  1.22528e-05
 Reference value :  1.22535e-05
 Reference value :  1.22544e-05
 Reference value :  1.22551e-05
 Reference value :  1.22560e-05
 Reference value :  1.22567e-05
 Reference value :  1.22575e-05
 Reference value :  1.22585e-05
 Reference value :  1.22596e-05
 Reference value :  1.22618e-05
 Reference value :  1.22641e-05
 Reference value :  1.22682e-05
 Reference value :  1.22725e-05
 Reference value :  1.22812e-05
 Reference value :  1.22986e-05
 Reference value :  1.23334e-05
 Reference value :  1.24030e-05
 Reference value :  1.25000e-05
 Reference value :  1.25000e-05
 Reference value :  1.25000e-05
 Reference value :  1.25001e-05
 Reference value :  1.25001e-05
 Reference value :  1.25001e-05
 Reference value :  1.25001e-05
 Reference value :  1.25001e-05
 Reference value :  1.25002e-05
 Reference value :  1.25002e-05
 Reference value :  1.25004e-05
 Reference value :  1.25006e-05
 Reference value :  1.25009e-05
 Reference value :  1.25014e-05
 Reference value :  1.25020e-05
 Reference value :  1.25026e-05
 Reference value :  1.25034e-05
 Reference value :  1.25041e-05
 Reference value :  1.25050e-05
 Reference value :  1.25057e-05
 Reference value :  1.25065e-05
 Reference value :  1.25074e-05
 Reference value :  1.25084e-05
 Reference value :  1.25093e-05
 Reference value :  1.25106e-05
 Reference value :  1.25122e-05
 Reference value :  1.25146e-05
 Reference value :  1.25179e-05
 Reference value :  1.25203e-05
 Reference value :  1.25223e-05
 Reference value :  1.25242e-05
 Reference value :  1.25261e-05
 Reference value :  1.25279e-05
 Reference value :  1.25302e-05
 Reference value :  1.25323e-05
 Reference value :  1.25353e-05
 Reference value :  1.25387e-05
 Reference value :  1.25439e-05
 Reference value :  1.25515e-05
 Reference value :  1.25598e-05
 Reference value :  1.25677e-05
 Reference value :  1.25765e-05
 Reference value :  1.25825e-05
 Reference value :  1.25884e-05
 Reference value :  1.25967e-05
 Reference value :  1.26042e-05
 Reference value :  1.26124e-05
 Reference value :  1.26217e-05
 Reference value :  1.26303e-05
 Reference value :  1.26475e-05
 Reference value :  1.26660e-05
 Reference value :  1.26950e-05
 Reference value :  1.27417e-05
 Reference value :  1.27501e-05
 Reference value :  1.27501e-05
 Reference value :  1.27501e-05
 Reference value :  1.27502e-05
 Reference value :  1.27502e-05
 Reference value :  1.27502e-05
 Reference value :  1.27502e-05
 Reference value :  1.27502e-05
 Reference value :  1.27502e-05
 Reference value :  1.27502e-05
 Reference value :  1.27502e-05
 Reference value :  1.27503e-05
 Reference value :  1.27504e-05
 Reference value :  1.27506e-05
 Reference value :  1.27509e-05
 Reference value :  1.27516e-05
 Reference value :  1.27522e-05
 Reference value :  1.27528e-05
 Reference value :  1.27535e-05
 Reference value :  1.27544e-05
 Reference value :  1.27551e-05
 Reference value :  1.27559e-05
 Reference value :  1.27568e-05
 Reference value :  1.27577e-05
 Reference value :  1.27588e-05
 Reference value :  1.27607e-05
 Reference value :  1.27632e-05
 Reference value :  1.27662e-05
 Reference value :  1.27706e-05
 Reference value :  1.27769e-05
 Reference value :  1.27896e-05
 Reference value :  1.28151e-05
 Reference value :  1.28660e-05
 Reference value :  1.29678e-05
 Reference value :  1.30000e-05
 Reference value :  1.30000e-05
 Reference value :  1.30000e-05
 Reference value :  1.30001e-05
 Reference value :  1.30001e-05
 Reference value :  1.30001e-05
 Reference value :  1.30001e-05
 Reference value :  1.30001e-05
 Reference value :  1.30002e-05
 Reference value :  1.30002e-05
 Reference value :  1.30004e-05
 Reference value :  1.30006e-05
 Reference value :  1.30009e-05
 Reference value :  1.30014e-05
 Reference value :  1.30020e-05
 Reference value :  1.30026e-05
 Reference value :  1.30033e-05
 Reference value :  1.30040e-05
 Reference value :  1.30049e-05
 Reference value :  1.30058e-05
 Reference value :  1.30068e-05
 Reference value :  1.30080e-05
 Reference value :  1.30092e-05
 Reference value :  1.30104e-05
 Reference value :  1.30116e-05
 Reference value :  1.30133e-05
 Reference value :  1.30147e-05
 Reference value :  1.30162e-05
 Reference value :  1.30179e-05
 Reference value :  1.30197e-05
 Reference value :  1.30232e-05
 Reference value :  1.30282e-05
 Reference value :  1.30381e-05
 Reference value :  1.30570e-05
 Reference value :  1.30933e-05
 Reference value :  1.31661e-05
 Reference value :  1.32501e-05
 Reference value :  1.32501e-05
 Reference value :  1.32501e-05
 Reference value :  1.32502e-05
 Reference value :  1.32502e-05
 Reference value :  1.32502e-05
 Reference value :  1.32502e-05
 Reference value :  1.32502e-05
 Reference value :  1.32502e-05
 Reference value :  1.32502e-05
 Reference value :  1.32502e-05
 Reference value :  1.32503e-05
 Reference value :  1.32504e-05
 Reference value :  1.32506e-05
 Reference value :  1.32509e-05
 Reference value :  1.32515e-05
 Reference value :  1.32521e-05
 Reference value :  1.32528e-05
 Reference value :  1.32535e-05
 Reference value :  1.32544e-05
 Reference value :  1.32551e-05
 Reference value :  1.32560e-05
 Reference value :  1.32567e-05
 Reference value :  1.32575e-05
 Reference value :  1.32585e-05
 Reference value :  1.32596e-05
 Reference value :  1.32608e-05
 Reference value :  1.32625e-05
 Reference value :  1.32645e-05
 Reference value :  1.32672e-05
 Reference value :  1.32708e-05
 Reference value :  1.32753e-05
 Reference value :  1.32844e-05
 Reference value :  1.32983e-05
 Reference value :  1.33263e-05
 Reference value :  1.33741e-05
 Reference value :  1.34139e-05
 Reference value :  1.34329e-05
 Reference value :  1.34561e-05
 Reference value :  1.34797e-05
 Reference value :  1.35000e-05
 Reference value :  1.35000e-05
 Reference value :  1.35000e-05
 Reference value :  1.35001e-05
 Reference value :  1.35001e-05
 Reference value :  1.35001e-05
 Reference value :  1.35001e-05
 Reference value :  1.35001e-05
 Reference value :  1.35002e-05
 Reference value :  1.35002e-05
 Reference value :  1.35004e-05
 Reference value :  1.35006e-05
 Reference value :  1.35009e-05
 Reference value :  1.35014e-05
 Reference value :  1.35020e-05
 Reference value :  1.35026e-05
 Reference value :  1.35034e-05
 Reference value :  1.35041e-05
 Reference value :  1.35050e-05
 Reference value :  1.35058e-05
 Reference value :  1.35066e-05
 Reference value :  1.35074e-05
 Reference value :  1.35083e-05
 Reference value :  1.35092e-05
 Reference value :  1.35105e-05
 Reference value :  1.35121e-05
 Reference value :  1.35144e-05
 Reference value :  1.35176e-05
 Reference value :  1.35198e-05
 Reference value :  1.35219e-05
 Reference value :  1.35241e-05
 Reference value :  1.35260e-05
 Reference value :  1.35281e-05
 Reference value :  1.35304e-05
 Reference value :  1.35326e-05
 Reference value :  1.35357e-05
 Reference value :  1.35393e-05
 Reference value :  1.35438e-05
 Reference value :  1.35470e-05
 Reference value :  1.35506e-05
 Reference value :  1.35543e-05
 Reference value :  1.35581e-05
 Reference value :  1.35643e-05
 Reference value :  1.35717e-05
 Reference value :  1.35795e-05
 Reference value :  1.35873e-05
 Reference value :  1.35956e-05
 Reference value :  1.36120e-05
 Reference value :  1.36372e-05
 Reference value :  1.36770e-05
 Reference value :  1.37477e-05
 Reference value :  1.37501e-05
 Reference value :  1.37501e-05
 Reference value :  1.37501e-05
 Reference value :  1.37502e-05
 Reference value :  1.37502e-05
 Reference value :  1.37502e-05
 Reference value :  1.37502e-05
 Reference value :  1.37502e-05
 Reference value :  1.37502e-05
 Reference value :  1.37502e-05
 Reference value :  1.37502e-05
 Reference value :  1.37503e-05
 Reference value :  1.37504e-05
 Reference value :  1.37506e-05
 Reference value :  1.37509e-05
 Reference value :  1.37516e-05
 Reference value :  1.37522e-05
 Reference value :  1.37528e-05
 Reference value :  1.37535e-05
 Reference value :  1.37544e-05
 Reference value :  1.37551e-05
 Reference value :  1.37559e-05
 Reference value :  1.37568e-05
 Reference value :  1.37577e-05
 Reference value :  1.37588e-05
 Reference value :  1.37608e-05
 Reference value :  1.37632e-05
 Reference value :  1.37663e-05
 Reference value :  1.37706e-05
 Reference value :  1.37772e-05
 Reference value :  1.37906e-05
 Reference value :  1.38172e-05
 Reference value :  1.38705e-05
 Reference value :  1.39771e-05
 Reference value :  1.40000e-05
 Reference value :  1.40000e-05
 Reference value :  1.40000e-05
 Reference value :  1.40001e-05
 Reference value :  1.40001e-05
 Reference value :  1.40001e-05
 Reference value :  1.40001e-05
 Reference value :  1.40001e-05
 Reference value :  1.40002e-05
 Reference value :  1.40002e-05
 Reference value :  1.40004e-05
 Reference value :  1.40006e-05
 Reference value :  1.40009e-05
 Reference value :  1.40014e-05
 Reference value :  1.40020e-05
 Reference value :  1.40026e-05
 Reference value :  1.40033e-05
 Reference value :  1.40040e-05
 Reference value :  1.40049e-05
 Reference value :  1.40059e-05
 Reference value :  1.40069e-05
 Reference value :  1.40081e-05
 Reference value :  1.40093e-05
 Reference value :  1.40107e-05
 Reference value :  1.40120e-05
 Reference value :  1.40136e-05
 Reference value :  1.40153e-05
 Reference value :  1.40171e-05
 Reference value :  1.40192e-05
 Reference value :  1.40227e-05
 Reference value :  1.40278e-05
 Reference value :  1.40371e-05
 Reference value :  1.40542e-05
 Reference value :  1.40849e-05
 Reference value :  1.41449e-05
 Reference value :  1.42501e-05
 Reference value :  1.42501e-05
 Reference value :  1.42501e-05
 Reference value :  1.42502e-05
 Reference value :  1.42502e-05
 Reference value :  1.42502e-05
 Reference value :  1.42502e-05
 Reference value :  1.42502e-05
 Reference value :  1.42502e-05
 Reference value :  1.42502e-05
 Reference value :  1.42502e-05
 Reference value :  1.42503e-05
 Reference value :  1.42504e-05
 Reference value :  1.42506e-05
 Reference value :  1.42509e-05
 Reference value :  1.42516e-05
 Reference value :  1.42522e-05
 Reference value :  1.42528e-05
 Reference value :  1.42535e-05
 Reference value :  1.42544e-05
 Reference value :  1.42551e-05
 Reference value :  1.42560e-05
 Reference value :  1.42567e-05
 Reference value :  1.42575e-05
 Reference value :  1.42585e-05
 Reference value :  1.42596e-05
 Reference value :  1.42606e-05
 Reference value :  1.42624e-05
 Reference value :  1.42642e-05
 Reference value :  1.42671e-05
 Reference value :  1.42703e-05
 Reference value :  1.42750e-05
 Reference value :  1.42837e-05
 Reference value :  1.42951e-05
 Reference value :  1.43169e-05
 Reference value :  1.43583e-05
 Reference value :  1.44327e-05
 Reference value :  1.45000e-05
 Reference value :  1.45000e-05
 Reference value :  1.45000e-05
 Reference value :  1.45001e-05
 Reference value :  1.45001e-05
 Reference value :  1.45001e-05
 Reference value :  1.45001e-05
 Reference value :  1.45001e-05
 Reference value :  1.45002e-05
 Reference value :  1.45002e-05
 Reference value :  1.45004e-05
 Reference value :  1.45006e-05
 Reference value :  1.45009e-05
 Reference value :  1.45014e-05
 Reference value :  1.45020e-05
 Reference value :  1.45026e-05
 Reference value :  1.45034e-05
 Reference value :  1.45041e-05
 Reference value :  1.45050e-05
 Reference value :  1.45057e-05
 Reference value :  1.45065e-05
 Reference value :  1.45072e-05
 Reference value :  1.45081e-05
 Reference value :  1.45090e-05
 Reference value :  1.45100e-05
 Reference value :  1.45116e-05
 Reference value :  1.45135e-05
 Reference value :  1.45149e-05
 Reference value :  1.45164e-05
 Reference value :  1.45180e-05
 Reference value :  1.45198e-05
 Reference value :  1.45215e-05
 Reference value :  1.45228e-05
 Reference value :  1.45242e-05
 Reference value :  1.45254e-05
 Reference value :  1.45268e-05
 Reference value :  1.45282e-05
 Reference value :  1.45297e-05
 Reference value :  1.45322e-05
 Reference value :  1.45350e-05
 Reference value :  1.45407e-05
 Reference value :  1.45483e-05
 Reference value :  1.45578e-05
 Reference value :  1.45666e-05
 Reference value :  1.45808e-05
 Reference value :  1.46062e-05
 Reference value :  1.46333e-05
 Reference value :  1.46875e-05
 Reference value :  1.47501e-05
 Reference value :  1.47501e-05
 Reference value :  1.47501e-05
 Reference value :  1.47502e-05
 Reference value :  1.47502e-05
 Reference value :  1.47502e-05
 Reference value :  1.47502e-05
 Reference value :  1.47502e-05
 Reference value :  1.47502e-05
 Reference value :  1.47502e-05
 Reference value :  1.47502e-05
 Reference value :  1.47503e-05
 Reference value :  1.47504e-05
 Reference value :  1.47506e-05
 Reference value :  1.47509e-05
 Reference value :  1.47516e-05
 Reference value :  1.47522e-05
 Reference value :  1.47528e-05
 Reference value :  1.47535e-05
 Reference value :  1.47544e-05
 Reference value :  1.47551e-05
 Reference value :  1.47560e-05
 Reference value :  1.47568e-05
 Reference value :  1.47577e-05
 Reference value :  1.47589e-05
 Reference value :  1.47608e-05
 Reference value :  1.47632e-05
 Reference value :  1.47663e-05
 Reference value :  1.47706e-05
 Reference value :  1.47772e-05
 Reference value :  1.47904e-05
 Reference value :  1.48168e-05
 Reference value :  1.48697e-05
 Reference value :  1.49755e-05
 Reference value :  1.50000e-05
 Reference value :  1.50000e-05
 Reference value :  1.50000e-05
 Reference value :  1.50001e-05
 Reference value :  1.50001e-05
 Reference value :  1.50001e-05
 Reference value :  1.50001e-05
 Reference value :  1.50001e-05
 Reference value :  1.50002e-05
 Reference value :  1.50002e-05
 Reference value :  1.50004e-05
 Reference value :  1.50006e-05
 Reference value :  1.50009e-05
 Reference value :  1.50014e-05
 Reference value :  1.50020e-05
 Reference value :  1.50026e-05
 Reference value :  1.50033e-05
 Reference value :  1.50040e-05
 Reference value :  1.50049e-05
 Reference value :  1.50058e-05
 Reference value :  1.50068e-05
 Reference value :  1.50080e-05
 Reference value :  1.50093e-05
 Reference value :  1.50105e-05
 Reference value :  1.50118e-05
 Reference value :  1.50135e-05
 Reference value :  1.50152e-05
 Reference value :  1.50168e-05
 Reference value :  1.50189e-05
 Reference value :  1.50211e-05
 Reference value :  1.50248e-05
 Reference value :  1.50302e-05
 Reference value :  1.50396e-05
 Reference value :  1.50565e-05
 Reference value :  1.50864e-05
 Reference value :  1.51426e-05
 Reference value :  1.52454e-05
 Reference value :  1.52501e-05
 Reference value :  1.52501e-05
 Reference value :  1.52501e-05
 Reference value :  1.52502e-05
 Reference value :  1.52502e-05
 Reference value :  1.52502e-05
 Reference value :  1.52502e-05
 Reference value :  1.52502e-05
 Reference value :  1.52502e-05
 Reference value :  1.52502e-05
 Reference value :  1.52502e-05
 Reference value :  1.52503e-05
 Reference value :  1.52504e-05
 Reference value :  1.52506e-05
 Reference value :  1.52509e-05
 Reference value :  1.52516e-05
 Reference value :  1.52522e-05
 Reference value :  1.52528e-05
 Reference value :  1.52535e-05
 Reference value :  1.52544e-05
 Reference value :  1.52551e-05
 Reference value :  1.52560e-05
 Reference value :  1.52567e-05
 Reference value :  1.52575e-05
 Reference value :  1.52585e-05
 Reference value :  1.52596e-05
 Reference value :  1.52607e-05
 Reference value :  1.52624e-05
 Reference value :  1.52642e-05
 Reference value :  1.52671e-05
 Reference value :  1.52704e-05
 Reference value :  1.52750e-05
 Reference value :  1.52841e-05
 Reference value :  1.52960e-05
 Reference value :  1.53194e-05
 Reference value :  1.53642e-05
 Reference value :  1.54510e-05
 Reference value :  1.55000e-05
 Reference value :  1.55007e-05
 Reference value :  1.55021e-05
 Reference value :  1.55028e-05
 Reference value :  1.55035e-05
 Reference value :  1.55043e-05
 Reference value :  1.55052e-05
 Reference value :  1.55059e-05
 Reference value :  1.55067e-05
 Reference value :  1.55074e-05
 Reference value :  1.55082e-05
 Reference value :  1.55092e-05
 Reference value :  1.55102e-05
 Reference value :  1.55121e-05
 Reference value :  1.55141e-05
 Reference value :  1.55156e-05
 Reference value :  1.55173e-05
 Reference value :  1.55188e-05
 Reference value :  1.55205e-05
 Reference value :  1.55222e-05
 Reference value :  1.55237e-05
 Reference value :  1.55252e-05
 Reference value :  1.55269e-05
 Reference value :  1.55286e-05
 Reference value :  1.55304e-05
 Reference value :  1.55331e-05
 Reference value :  1.55360e-05
 Reference value :  1.55418e-05
 Reference value :  1.55474e-05
 Reference value :  1.55575e-05
 Reference value :  1.55724e-05
 Reference value :  1.56023e-05
 Reference value :  1.56431e-05
 Reference value :  1.57229e-05
 Reference value :  1.57501e-05
 Reference value :  1.57501e-05
 Reference value :  1.57501e-05
 Reference value :  1.57502e-05
 Reference value :  1.57502e-05
 Reference value :  1.57502e-05
 Reference value :  1.57502e-05
 Reference value :  1.57502e-05
 Reference value :  1.57502e-05
 Reference value :  1.57502e-05
 Reference value :  1.57502e-05
 Reference value :  1.57503e-05
 Reference value :  1.57504e-05
 Reference value :  1.57506e-05
 Reference value :  1.57509e-05
 Reference value :  1.57515e-05
 Reference value :  1.57522e-05
 Reference value :  1.57528e-05
 Reference value :  1.57535e-05
 Reference value :  1.57544e-05
 Reference value :  1.57551e-05
 Reference value :  1.57559e-05
 Reference value :  1.57568e-05
[...]
 Reference value :  1.74500e-04
 Reference value :  1.74500e-04
 Reference value :  1.74500e-04
 Reference value :  1.74500e-04
 Reference value :  1.74500e-04
 Reference value :  1.74500e-04
 Reference value :  1.74500e-04
 Reference value :  1.74501e-04
 Reference value :  1.74501e-04
 Reference value :  1.74501e-04
 Reference value :  1.74502e-04
 Reference value :  1.74503e-04
 Reference value :  1.74503e-04
 Reference value :  1.74504e-04
 Reference value :  1.74505e-04
 Reference value :  1.74506e-04
 Reference value :  1.74507e-04
 Reference value :  1.74508e-04
 Reference value :  1.74509e-04
 Reference value :  1.74510e-04
 Reference value :  1.74511e-04
 Reference value :  1.74513e-04
 Reference value :  1.74514e-04
 Reference value :  1.74516e-04
 Reference value :  1.74518e-04
 Reference value :  1.74519e-04
 Reference value :  1.74523e-04
 Reference value :  1.74528e-04
 Reference value :  1.74538e-04
 Reference value :  1.74558e-04
 Reference value :  1.74598e-04
 Reference value :  1.74678e-04
 Reference value :  1.74750e-04
 Reference value :  1.74750e-04
 Reference value :  1.74750e-04
 Reference value :  1.74750e-04
 Reference value :  1.74750e-04
 Reference value :  1.74750e-04
 Reference value :  1.74750e-04
 Reference value :  1.74750e-04
 Reference value :  1.74750e-04
 Reference value :  1.74750e-04
 Reference value :  1.74750e-04
 Reference value :  1.74750e-04
 Reference value :  1.74750e-04
 Reference value :  1.74751e-04
 Reference value :  1.74751e-04
 Reference value :  1.74752e-04
 Reference value :  1.74752e-04
 Reference value :  1.74753e-04
 Reference value :  1.74753e-04
 Reference value :  1.74754e-04
 Reference value :  1.74755e-04
 Reference value :  1.74756e-04
 Reference value :  1.74757e-04
 Reference value :  1.74758e-04
 Reference value :  1.74759e-04
 Reference value :  1.74760e-04
 Reference value :  1.74762e-04
 Reference value :  1.74764e-04
 Reference value :  1.74768e-04
 Reference value :  1.74773e-04
 Reference value :  1.74781e-04
 Reference value :  1.74799e-04
 Reference value :  1.74834e-04
 Reference value :  1.74904e-04
 Reference value :  1.75000e-04
 Reference value :  1.75000e-04
 Reference value :  1.75000e-04
 Reference value :  1.75000e-04
 Reference value :  1.75000e-04
 Reference value :  1.75000e-04
 Reference value :  1.75000e-04
 Reference value :  1.75000e-04
 Reference value :  1.75000e-04
 Reference value :  1.75000e-04
 Reference value :  1.75000e-04
 Reference value :  1.75001e-04
 Reference value :  1.75001e-04
 Reference value :  1.75001e-04
 Reference value :  1.75002e-04
 Reference value :  1.75003e-04
 Reference value :  1.75003e-04
 Reference value :  1.75004e-04
 Reference value :  1.75005e-04
 Reference value :  1.75006e-04
 Reference value :  1.75007e-04
 Reference value :  1.75007e-04
 Reference value :  1.75008e-04
 Reference value :  1.75009e-04
 Reference value :  1.75010e-04
 Reference value :  1.75012e-04
 Reference value :  1.75014e-04
 Reference value :  1.75018e-04
 Reference value :  1.75020e-04
 Reference value :  1.75022e-04
 Reference value :  1.75024e-04
 Reference value :  1.75026e-04
 Reference value :  1.75028e-04
 Reference value :  1.75030e-04
 Reference value :  1.75032e-04
 Reference value :  1.75035e-04
 Reference value :  1.75039e-04
 Reference value :  1.75044e-04
 Reference value :  1.75051e-04
 Reference value :  1.75060e-04
 Reference value :  1.75067e-04
 Reference value :  1.75076e-04
 Reference value :  1.75082e-04
 Reference value :  1.75088e-04
 Reference value :  1.75096e-04
 Reference value :  1.75105e-04
 Reference value :  1.75112e-04
 Reference value :  1.75122e-04
 Reference value :  1.75133e-04
 Reference value :  1.75151e-04
 Reference value :  1.75175e-04
 Reference value :  1.75204e-04
 Reference value :  1.75245e-04
 Reference value :  1.75250e-04
 Reference value :  1.75250e-04
 Reference value :  1.75250e-04
 Reference value :  1.75250e-04
 Reference value :  1.75250e-04
 Reference value :  1.75250e-04
 Reference value :  1.75250e-04
 Reference value :  1.75250e-04
 Reference value :  1.75250e-04
 Reference value :  1.75250e-04
 Reference value :  1.75250e-04
 Reference value :  1.75250e-04
 Reference value :  1.75250e-04
 Reference value :  1.75251e-04
 Reference value :  1.75251e-04
 Reference value :  1.75252e-04
 Reference value :  1.75252e-04
 Reference value :  1.75253e-04
 Reference value :  1.75254e-04
 Reference value :  1.75254e-04
 Reference value :  1.75255e-04
 Reference value :  1.75256e-04
 Reference value :  1.75257e-04
 Reference value :  1.75258e-04
 Reference value :  1.75259e-04
 Reference value :  1.75261e-04
 Reference value :  1.75263e-04
 Reference value :  1.75266e-04
 Reference value :  1.75270e-04
 Reference value :  1.75274e-04
 Reference value :  1.75278e-04
 Reference value :  1.75284e-04
 Reference value :  1.75292e-04
 Reference value :  1.75303e-04
 Reference value :  1.75316e-04
 Reference value :  1.75330e-04
 Reference value :  1.75357e-04
 Reference value :  1.75412e-04
 Reference value :  1.75500e-04
 Reference value :  1.75500e-04
 Reference value :  1.75500e-04
 Reference value :  1.75500e-04
 Reference value :  1.75500e-04
 Reference value :  1.75500e-04
 Reference value :  1.75500e-04
 Reference value :  1.75500e-04
 Reference value :  1.75500e-04
 Reference value :  1.75500e-04
 Reference value :  1.75500e-04
 Reference value :  1.75501e-04
 Reference value :  1.75501e-04
 Reference value :  1.75501e-04
 Reference value :  1.75502e-04
 Reference value :  1.75503e-04
 Reference value :  1.75503e-04
 Reference value :  1.75504e-04
 Reference value :  1.75505e-04
 Reference value :  1.75506e-04
 Reference value :  1.75507e-04
 Reference value :  1.75508e-04
 Reference value :  1.75509e-04
 Reference value :  1.75511e-04
 Reference value :  1.75512e-04
 Reference value :  1.75513e-04
 Reference value :  1.75515e-04
 Reference value :  1.75517e-04
 Reference value :  1.75519e-04
 Reference value :  1.75521e-04
 Reference value :  1.75525e-04
 Reference value :  1.75531e-04
 Reference value :  1.75542e-04
 Reference value :  1.75561e-04
 Reference value :  1.75593e-04
 Reference value :  1.75653e-04
 Reference value :  1.75750e-04
 Reference value :  1.75750e-04
 Reference value :  1.75750e-04
 Reference value :  1.75750e-04
 Reference value :  1.75750e-04
 Reference value :  1.75750e-04
 Reference value :  1.75750e-04
 Reference value :  1.75750e-04
 Reference value :  1.75750e-04
 Reference value :  1.75750e-04
 Reference value :  1.75750e-04
 Reference value :  1.75750e-04
 Reference value :  1.75750e-04
 Reference value :  1.75751e-04
 Reference value :  1.75751e-04
 Reference value :  1.75752e-04
 Reference value :  1.75752e-04
 Reference value :  1.75753e-04
 Reference value :  1.75753e-04
 Reference value :  1.75754e-04
 Reference value :  1.75755e-04
 Reference value :  1.75756e-04
 Reference value :  1.75757e-04
 Reference value :  1.75757e-04
 Reference value :  1.75759e-04
 Reference value :  1.75760e-04
 Reference value :  1.75762e-04
 Reference value :  1.75764e-04
 Reference value :  1.75768e-04
 Reference value :  1.75773e-04
 Reference value :  1.75781e-04
 Reference value :  1.75799e-04
 Reference value :  1.75834e-04
 Reference value :  1.75903e-04
 Reference value :  1.76000e-04
 Reference value :  1.76000e-04
 Reference value :  1.76000e-04
 Reference value :  1.76000e-04
 Reference value :  1.76000e-04
 Reference value :  1.76000e-04
 Reference value :  1.76000e-04
 Reference value :  1.76000e-04
 Reference value :  1.76000e-04
 Reference value :  1.76000e-04
 Reference value :  1.76000e-04
 Reference value :  1.76001e-04
 Reference value :  1.76001e-04
 Reference value :  1.76001e-04
 Reference value :  1.76002e-04
 Reference value :  1.76003e-04
 Reference value :  1.76003e-04
 Reference value :  1.76004e-04
 Reference value :  1.76005e-04
 Reference value :  1.76006e-04
 Reference value :  1.76007e-04
 Reference value :  1.76007e-04
 Reference value :  1.76008e-04
 Reference value :  1.76009e-04
 Reference value :  1.76010e-04
 Reference value :  1.76012e-04
 Reference value :  1.76014e-04
 Reference value :  1.76017e-04
 Reference value :  1.76019e-04
 Reference value :  1.76021e-04
 Reference value :  1.76023e-04
 Reference value :  1.76025e-04
 Reference value :  1.76026e-04
 Reference value :  1.76027e-04
 Reference value :  1.76029e-04
 Reference value :  1.76031e-04
 Reference value :  1.76034e-04
 Reference value :  1.76037e-04
 Reference value :  1.76043e-04
 Reference value :  1.76049e-04
 Reference value :  1.76055e-04
 Reference value :  1.76062e-04
 Reference value :  1.76067e-04
 Reference value :  1.76072e-04
 Reference value :  1.76078e-04
 Reference value :  1.76084e-04
 Reference value :  1.76093e-04
 Reference value :  1.76100e-04
 Reference value :  1.76108e-04
 Reference value :  1.76119e-04
 Reference value :  1.76136e-04
 Reference value :  1.76158e-04
 Reference value :  1.76193e-04
 Reference value :  1.76248e-04
 Reference value :  1.76250e-04
 Reference value :  1.76250e-04
 Reference value :  1.76250e-04
 Reference value :  1.76250e-04
 Reference value :  1.76250e-04
 Reference value :  1.76250e-04
 Reference value :  1.76250e-04
 Reference value :  1.76250e-04
 Reference value :  1.76250e-04
 Reference value :  1.76250e-04
 Reference value :  1.76250e-04
 Reference value :  1.76250e-04
 Reference value :  1.76250e-04
 Reference value :  1.76251e-04
 Reference value :  1.76251e-04
 Reference value :  1.76252e-04
 Reference value :  1.76252e-04
 Reference value :  1.76253e-04
 Reference value :  1.76253e-04
 Reference value :  1.76254e-04
 Reference value :  1.76255e-04
 Reference value :  1.76256e-04
 Reference value :  1.76257e-04
 Reference value :  1.76258e-04
 Reference value :  1.76259e-04
 Reference value :  1.76261e-04
 Reference value :  1.76263e-04
 Reference value :  1.76266e-04
 Reference value :  1.76271e-04
 Reference value :  1.76277e-04
 Reference value :  1.76291e-04
 Reference value :  1.76317e-04
 Reference value :  1.76370e-04
 Reference value :  1.76477e-04
 Reference value :  1.76500e-04
 Reference value :  1.76500e-04
 Reference value :  1.76500e-04
 Reference value :  1.76500e-04
 Reference value :  1.76500e-04
 Reference value :  1.76500e-04
 Reference value :  1.76500e-04
 Reference value :  1.76500e-04
 Reference value :  1.76500e-04
 Reference value :  1.76500e-04
 Reference value :  1.76500e-04
 Reference value :  1.76501e-04
 Reference value :  1.76501e-04
 Reference value :  1.76501e-04
 Reference value :  1.76502e-04
 Reference value :  1.76503e-04
 Reference value :  1.76503e-04
 Reference value :  1.76504e-04
 Reference value :  1.76505e-04
 Reference value :  1.76506e-04
 Reference value :  1.76507e-04
 Reference value :  1.76508e-04
 Reference value :  1.76509e-04
 Reference value :  1.76511e-04
 Reference value :  1.76512e-04
 Reference value :  1.76514e-04
 Reference value :  1.76515e-04
 Reference value :  1.76517e-04
 Reference value :  1.76519e-04
 Reference value :  1.76521e-04
 Reference value :  1.76525e-04
 Reference value :  1.76530e-04
 Reference value :  1.76539e-04
 Reference value :  1.76556e-04
 Reference value :  1.76585e-04
 Reference value :  1.76641e-04
 Reference value :  1.76744e-04
 Reference value :  1.76750e-04
 Reference value :  1.76750e-04
 Reference value :  1.76750e-04
 Reference value :  1.76750e-04
 Reference value :  1.76750e-04
 Reference value :  1.76750e-04
 Reference value :  1.76750e-04
 Reference value :  1.76750e-04
 Reference value :  1.76750e-04
 Reference value :  1.76750e-04
 Reference value :  1.76750e-04
 Reference value :  1.76750e-04
 Reference value :  1.76750e-04
 Reference value :  1.76751e-04
 Reference value :  1.76751e-04
 Reference value :  1.76752e-04
 Reference value :  1.76752e-04
 Reference value :  1.76753e-04
 Reference value :  1.76754e-04
 Reference value :  1.76754e-04
 Reference value :  1.76755e-04
 Reference value :  1.76756e-04
 Reference value :  1.76757e-04
 Reference value :  1.76757e-04
 Reference value :  1.76758e-04
 Reference value :  1.76760e-04
 Reference value :  1.76761e-04
 Reference value :  1.76762e-04
 Reference value :  1.76764e-04
 Reference value :  1.76767e-04
 Reference value :  1.76770e-04
 Reference value :  1.76775e-04
 Reference value :  1.76784e-04
 Reference value :  1.76796e-04
 Reference value :  1.76819e-04
 Reference value :  1.76862e-04
 Reference value :  1.76947e-04
 Reference value :  1.77000e-04
 Reference value :  1.77000e-04
 Reference value :  1.77000e-04
 Reference value :  1.77000e-04
 Reference value :  1.77000e-04
 Reference value :  1.77000e-04
 Reference value :  1.77000e-04
 Reference value :  1.77000e-04
 Reference value :  1.77000e-04
 Reference value :  1.77000e-04
 Reference value :  1.77000e-04
 Reference value :  1.77001e-04
 Reference value :  1.77001e-04
 Reference value :  1.77001e-04
 Reference value :  1.77002e-04
 Reference value :  1.77003e-04
 Reference value :  1.77003e-04
 Reference value :  1.77004e-04
 Reference value :  1.77005e-04
 Reference value :  1.77006e-04
 Reference value :  1.77006e-04
 Reference value :  1.77007e-04
 Reference value :  1.77008e-04
 Reference value :  1.77009e-04
 Reference value :  1.77010e-04
 Reference value :  1.77011e-04
 Reference value :  1.77013e-04
 Reference value :  1.77015e-04
 Reference value :  1.77016e-04
 Reference value :  1.77018e-04
 Reference value :  1.77020e-04
 Reference value :  1.77022e-04
 Reference value :  1.77023e-04
 Reference value :  1.77024e-04
 Reference value :  1.77025e-04
 Reference value :  1.77027e-04
 Reference value :  1.77028e-04
 Reference value :  1.77030e-04
 Reference value :  1.77032e-04
 Reference value :  1.77035e-04
 Reference value :  1.77039e-04
 Reference value :  1.77044e-04
 Reference value :  1.77050e-04
 Reference value :  1.77059e-04
 Reference value :  1.77076e-04
 Reference value :  1.77109e-04
 Reference value :  1.77141e-04
 Reference value :  1.77184e-04
 Reference value :  1.77249e-04
 Reference value :  1.77250e-04
 Reference value :  1.77250e-04
 Reference value :  1.77250e-04
 Reference value :  1.77250e-04
 Reference value :  1.77250e-04
 Reference value :  1.77250e-04
 Reference value :  1.77250e-04
 Reference value :  1.77250e-04
 Reference value :  1.77250e-04
 Reference value :  1.77250e-04
 Reference value :  1.77250e-04
 Reference value :  1.77250e-04
 Reference value :  1.77250e-04
 Reference value :  1.77251e-04
 Reference value :  1.77251e-04
 Reference value :  1.77252e-04
 Reference value :  1.77252e-04
 Reference value :  1.77253e-04
 Reference value :  1.77254e-04
 Reference value :  1.77254e-04
 Reference value :  1.77255e-04
 Reference value :  1.77256e-04
 Reference value :  1.77257e-04
 Reference value :  1.77258e-04
 Reference value :  1.77259e-04
 Reference value :  1.77261e-04
 Reference value :  1.77263e-04
 Reference value :  1.77266e-04
 Reference value :  1.77271e-04
 Reference value :  1.77277e-04
 Reference value :  1.77290e-04
 Reference value :  1.77316e-04
 Reference value :  1.77368e-04
 Reference value :  1.77472e-04
 Reference value :  1.77500e-04
 Reference value :  1.77500e-04
 Reference value :  1.77500e-04
 Reference value :  1.77500e-04
 Reference value :  1.77500e-04
 Reference value :  1.77500e-04
 Reference value :  1.77500e-04
 Reference value :  1.77500e-04
 Reference value :  1.77500e-04
 Reference value :  1.77500e-04
 Reference value :  1.77500e-04
 Reference value :  1.77501e-04
 Reference value :  1.77501e-04
 Reference value :  1.77501e-04
 Reference value :  1.77502e-04
 Reference value :  1.77503e-04
 Reference value :  1.77503e-04
 Reference value :  1.77504e-04
 Reference value :  1.77505e-04
 Reference value :  1.77506e-04
 Reference value :  1.77507e-04
 Reference value :  1.77508e-04
 Reference value :  1.77509e-04
 Reference value :  1.77511e-04
 Reference value :  1.77512e-04
 Reference value :  1.77514e-04
 Reference value :  1.77515e-04
 Reference value :  1.77517e-04
 Reference value :  1.77518e-04
 Reference value :  1.77520e-04
 Reference value :  1.77524e-04
 Reference value :  1.77529e-04
 Reference value :  1.77539e-04
 Reference value :  1.77557e-04
 Reference value :  1.77590e-04
 Reference value :  1.77657e-04
 Reference value :  1.77750e-04
 Reference value :  1.77750e-04
 Reference value :  1.77750e-04
 Reference value :  1.77750e-04
 Reference value :  1.77750e-04
 Reference value :  1.77750e-04
 Reference value :  1.77750e-04
 Reference value :  1.77750e-04
 Reference value :  1.77750e-04
 Reference value :  1.77750e-04
 Reference value :  1.77750e-04
 Reference value :  1.77750e-04
 Reference value :  1.77750e-04
 Reference value :  1.77751e-04
 Reference value :  1.77751e-04
 Reference value :  1.77752e-04
 Reference value :  1.77752e-04
 Reference value :  1.77753e-04
 Reference value :  1.77754e-04
 Reference value :  1.77754e-04
 Reference value :  1.77755e-04
 Reference value :  1.77756e-04
 Reference value :  1.77757e-04
 Reference value :  1.77757e-04
 Reference value :  1.77758e-04
 Reference value :  1.77760e-04
 Reference value :  1.77761e-04
 Reference value :  1.77762e-04
 Reference value :  1.77764e-04
 Reference value :  1.77767e-04
 Reference value :  1.77770e-04
 Reference value :  1.77775e-04
 Reference value :  1.77784e-04
 Reference value :  1.77796e-04
 Reference value :  1.77821e-04
 Reference value :  1.77866e-04
 Reference value :  1.77957e-04
 Reference value :  1.78000e-04
 Reference value :  1.78000e-04
 Reference value :  1.78000e-04
 Reference value :  1.78000e-04
 Reference value :  1.78000e-04
 Reference value :  1.78000e-04
 Reference value :  1.78000e-04
 Reference value :  1.78000e-04
 Reference value :  1.78000e-04
 Reference value :  1.78000e-04
 Reference value :  1.78000e-04
 Reference value :  1.78001e-04
 Reference value :  1.78001e-04
 Reference value :  1.78002e-04
 Reference value :  1.78002e-04
 Reference value :  1.78003e-04
 Reference value :  1.78003e-04
 Reference value :  1.78004e-04
 Reference value :  1.78005e-04
 Reference value :  1.78006e-04
 Reference value :  1.78007e-04
 Reference value :  1.78007e-04
 Reference value :  1.78008e-04
 Reference value :  1.78009e-04
 Reference value :  1.78010e-04
 Reference value :  1.78012e-04
 Reference value :  1.78014e-04
 Reference value :  1.78016e-04
 Reference value :  1.78017e-04
 Reference value :  1.78019e-04
 Reference value :  1.78021e-04
 Reference value :  1.78023e-04
 Reference value :  1.78025e-04
 Reference value :  1.78027e-04
 Reference value :  1.78030e-04
 Reference value :  1.78032e-04
 Reference value :  1.78035e-04
 Reference value :  1.78037e-04
 Reference value :  1.78040e-04
 Reference value :  1.78046e-04
 Reference value :  1.78056e-04
 Reference value :  1.78072e-04
 Reference value :  1.78100e-04
 Reference value :  1.78150e-04
 Reference value :  1.78243e-04
 Reference value :  1.78250e-04
 Reference value :  1.78250e-04
 Reference value :  1.78250e-04
 Reference value :  1.78250e-04
 Reference value :  1.78250e-04
 Reference value :  1.78250e-04
 Reference value :  1.78250e-04
 Reference value :  1.78250e-04
 Reference value :  1.78250e-04
 Reference value :  1.78250e-04
 Reference value :  1.78250e-04
 Reference value :  1.78250e-04
 Reference value :  1.78250e-04
 Reference value :  1.78251e-04
 Reference value :  1.78251e-04
 Reference value :  1.78252e-04
 Reference value :  1.78252e-04
 Reference value :  1.78253e-04
 Reference value :  1.78254e-04
 Reference value :  1.78254e-04
 Reference value :  1.78255e-04
 Reference value :  1.78257e-04
 Reference value :  1.78258e-04
 Reference value :  1.78259e-04
 Reference value :  1.78262e-04
 Reference value :  1.78264e-04
 Reference value :  1.78268e-04
 Reference value :  1.78273e-04
 Reference value :  1.78283e-04
 Reference value :  1.78302e-04
 Reference value :  1.78340e-04
 Reference value :  1.78417e-04
 Reference value :  1.78500e-04
No. of Data Rows : 27896
ngspice-44 done
