
Note: Compatibility modes selected: hs a


Circuit: ** sch_path: /home/audrey/cace/sar-adc-using-sky130-pdk/runs/run_2025-09-07_20-20-31/parameters/power/run_0/power_consumption.sch

option SCALE: Scale is set to 1e-06 for instance and model parameters
option SCALE: Scale is set to 1e-06 for instance and model parameters
option SCALE: Scale is set to 1e-06 for instance and model parameters
option SCALE: Scale is set to 1e-06 for instance and model parameters
Doing analysis at TEMP = 27.000000 and TNOM = 27.000000

Using KLU as Direct Linear Solver
 Reference value :  0.00000e+00
 Reference value :  1.00000e-12
 Reference value :  2.00000e-12
 Reference value :  4.00000e-12
 Reference value :  8.00000e-12
 Reference value :  1.60000e-11
 Reference value :  3.20000e-11
 Reference value :  6.40000e-11
 Reference value :  1.00000e-10
 Reference value :  1.01503e-10
 Reference value :  1.04508e-10
 Reference value :  1.10520e-10
 Reference value :  1.22542e-10
 Reference value :  1.46587e-10
 Reference value :  1.94677e-10
 Reference value :  2.90857e-10
 Reference value :  4.45345e-10
 Reference value :  7.21194e-10
 Reference value :  1.20328e-09
 Reference value :  1.65768e-09
 Reference value :  2.29669e-09
 Reference value :  3.01795e-09
 Reference value :  3.71785e-09
 Reference value :  4.63093e-09
 Reference value :  5.37212e-09
 Reference value :  6.15627e-09
 Reference value :  6.84651e-09
 Reference value :  7.67886e-09
 Reference value :  8.63413e-09
 Reference value :  9.64638e-09
 Reference value :  1.07872e-08
 Reference value :  1.20599e-08
 Reference value :  1.32463e-08
 Reference value :  1.46512e-08
 Reference value :  1.61474e-08
 Reference value :  1.73087e-08
 Reference value :  1.86318e-08
 Reference value :  2.00285e-08
 Reference value :  2.15560e-08
 Reference value :  2.32677e-08
 Reference value :  2.58754e-08
 Reference value :  2.82971e-08
 Reference value :  3.09531e-08
 Reference value :  3.45621e-08
 Reference value :  3.91897e-08
 Reference value :  4.58122e-08
 Reference value :  5.32087e-08
 Reference value :  6.28814e-08
 Reference value :  7.32542e-08
 Reference value :  8.76788e-08
 Reference value :  1.05485e-07
 Reference value :  1.31936e-07
 Reference value :  1.66243e-07
 Reference value :  2.18505e-07
 Reference value :  2.50100e-07
 Reference value :  2.50110e-07
 Reference value :  2.50130e-07
 Reference value :  2.50170e-07
 Reference value :  2.50200e-07
 Reference value :  2.50201e-07
 Reference value :  2.50202e-07
 Reference value :  2.50204e-07
 Reference value :  2.50208e-07
 Reference value :  2.50216e-07
 Reference value :  2.50233e-07
 Reference value :  2.50266e-07
 Reference value :  2.50333e-07
 Reference value :  2.50417e-07
 Reference value :  2.50584e-07
 Reference value :  2.50760e-07
 Reference value :  2.51086e-07
 Reference value :  2.51475e-07
 Reference value :  2.52029e-07
 Reference value :  2.52635e-07
 Reference value :  2.53377e-07
 Reference value :  2.54351e-07
 Reference value :  2.55146e-07
 Reference value :  2.56068e-07
 Reference value :  2.56908e-07
 Reference value :  2.57885e-07
 Reference value :  2.58796e-07
 Reference value :  2.60402e-07
 Reference value :  2.62551e-07
 Reference value :  2.65003e-07
 Reference value :  2.68908e-07
 Reference value :  2.74479e-07
 Reference value :  2.85622e-07
 Reference value :  3.07906e-07
 Reference value :  3.52475e-07
 Reference value :  4.41614e-07
 Reference value :  5.00000e-07
 Reference value :  5.00010e-07
 Reference value :  5.00030e-07
 Reference value :  5.00070e-07
 Reference value :  5.00100e-07
 Reference value :  5.00104e-07
 Reference value :  5.00113e-07
 Reference value :  5.00130e-07
 Reference value :  5.00164e-07
 Reference value :  5.00231e-07
 Reference value :  5.00367e-07
 Reference value :  5.00555e-07
 Reference value :  5.00932e-07
 Reference value :  5.01447e-07
 Reference value :  5.01998e-07
 Reference value :  5.02543e-07
 Reference value :  5.03229e-07
 Reference value :  5.03912e-07
 Reference value :  5.04747e-07
 Reference value :  5.05611e-07
 Reference value :  5.06517e-07
 Reference value :  5.07777e-07
 Reference value :  5.09106e-07
 Reference value :  5.11680e-07
 Reference value :  5.14160e-07
 Reference value :  5.16162e-07
 Reference value :  5.18392e-07
 Reference value :  5.21017e-07
 Reference value :  5.23865e-07
 Reference value :  5.26514e-07
 Reference value :  5.29227e-07
 Reference value :  5.32272e-07
 Reference value :  5.35515e-07
 Reference value :  5.39438e-07
 Reference value :  5.44299e-07
 Reference value :  5.50513e-07
 Reference value :  5.60508e-07
 Reference value :  5.76461e-07
 Reference value :  6.08365e-07
 Reference value :  6.66973e-07
 Reference value :  7.50100e-07
 Reference value :  7.50110e-07
 Reference value :  7.50130e-07
 Reference value :  7.50170e-07
 Reference value :  7.50200e-07
 Reference value :  7.50201e-07
 Reference value :  7.50202e-07
 Reference value :  7.50205e-07
 Reference value :  7.50211e-07
 Reference value :  7.50223e-07
 Reference value :  7.50247e-07
 Reference value :  7.50295e-07
 Reference value :  7.50390e-07
 Reference value :  7.50581e-07
 Reference value :  7.50959e-07
 Reference value :  7.51482e-07
 Reference value :  7.52141e-07
 Reference value :  7.52795e-07
 Reference value :  7.53543e-07
 Reference value :  7.54595e-07
 Reference value :  7.55347e-07
 Reference value :  7.56200e-07
 Reference value :  7.56956e-07
 Reference value :  7.57804e-07
 Reference value :  7.58836e-07
 Reference value :  7.59967e-07
 Reference value :  7.61132e-07
 Reference value :  7.62857e-07
 Reference value :  7.64653e-07
 Reference value :  7.67239e-07
 Reference value :  7.70416e-07
 Reference value :  7.75075e-07
 Reference value :  7.84393e-07
 Reference value :  7.98733e-07
 Reference value :  8.27414e-07
 Reference value :  8.84775e-07
 Reference value :  9.99497e-07
 Reference value :  1.00000e-06
 Reference value :  1.00001e-06
 Reference value :  1.00002e-06
 Reference value :  1.00005e-06
 Reference value :  1.00010e-06
 Reference value :  1.00011e-06
 Reference value :  1.00012e-06
 Reference value :  1.00014e-06
 Reference value :  1.00019e-06
 Reference value :  1.00029e-06
 Reference value :  1.00044e-06
 Reference value :  1.00070e-06
 Reference value :  1.00123e-06
 Reference value :  1.00184e-06
 Reference value :  1.00263e-06
 Reference value :  1.00335e-06
 Reference value :  1.00406e-06
 Reference value :  1.00490e-06
 Reference value :  1.00568e-06
 Reference value :  1.00652e-06
 Reference value :  1.00743e-06
 Reference value :  1.00830e-06
 Reference value :  1.00922e-06
 Reference value :  1.01019e-06
 Reference value :  1.01141e-06
 Reference value :  1.01319e-06
 Reference value :  1.01556e-06
 Reference value :  1.01720e-06
 Reference value :  1.01904e-06
 Reference value :  1.02080e-06
 Reference value :  1.02249e-06
 Reference value :  1.02422e-06
 Reference value :  1.02579e-06
 Reference value :  1.02742e-06
 Reference value :  1.02933e-06
 Reference value :  1.03153e-06
 Reference value :  1.03412e-06
 Reference value :  1.03812e-06
 Reference value :  1.04389e-06
 Reference value :  1.05312e-06
 Reference value :  1.06830e-06
 Reference value :  1.09292e-06
 Reference value :  1.13468e-06
 Reference value :  1.20416e-06
 Reference value :  1.25010e-06
 Reference value :  1.25011e-06
 Reference value :  1.25013e-06
 Reference value :  1.25017e-06
 Reference value :  1.25020e-06
 Reference value :  1.25020e-06
 Reference value :  1.25020e-06
 Reference value :  1.25021e-06
 Reference value :  1.25021e-06
 Reference value :  1.25022e-06
 Reference value :  1.25025e-06
 Reference value :  1.25029e-06
 Reference value :  1.25039e-06
 Reference value :  1.25058e-06
 Reference value :  1.25091e-06
 Reference value :  1.25146e-06
 Reference value :  1.25209e-06
 Reference value :  1.25276e-06
 Reference value :  1.25350e-06
 Reference value :  1.25453e-06
 Reference value :  1.25528e-06
 Reference value :  1.25614e-06
 Reference value :  1.25703e-06
 Reference value :  1.25795e-06
 Reference value :  1.25926e-06
 Reference value :  1.26111e-06
 Reference value :  1.26330e-06
 Reference value :  1.26653e-06
 Reference value :  1.27081e-06
 Reference value :  1.27937e-06
 Reference value :  1.29649e-06
 Reference value :  1.32683e-06
 Reference value :  1.38750e-06
 Reference value :  1.50000e-06
 Reference value :  1.50001e-06
 Reference value :  1.50003e-06
 Reference value :  1.50007e-06
 Reference value :  1.50010e-06
 Reference value :  1.50010e-06
 Reference value :  1.50011e-06
 Reference value :  1.50013e-06
 Reference value :  1.50016e-06
 Reference value :  1.50023e-06
 Reference value :  1.50037e-06
 Reference value :  1.50055e-06
 Reference value :  1.50091e-06
 Reference value :  1.50142e-06
 Reference value :  1.50197e-06
 Reference value :  1.50252e-06
 Reference value :  1.50322e-06
 Reference value :  1.50386e-06
 Reference value :  1.50464e-06
 Reference value :  1.50547e-06
 Reference value :  1.50637e-06
 Reference value :  1.50760e-06
 Reference value :  1.50884e-06
 Reference value :  1.51017e-06
 Reference value :  1.51167e-06
 Reference value :  1.51316e-06
 Reference value :  1.51463e-06
 Reference value :  1.51620e-06
 Reference value :  1.51780e-06
 Reference value :  1.51960e-06
 Reference value :  1.52320e-06
 Reference value :  1.53040e-06
 Reference value :  1.54254e-06
 Reference value :  1.56683e-06
 Reference value :  1.61541e-06
 Reference value :  1.71256e-06
 Reference value :  1.75010e-06
 Reference value :  1.75011e-06
 Reference value :  1.75013e-06
 Reference value :  1.75017e-06
 Reference value :  1.75020e-06
 Reference value :  1.75020e-06
 Reference value :  1.75020e-06
 Reference value :  1.75021e-06
 Reference value :  1.75021e-06
 Reference value :  1.75022e-06
 Reference value :  1.75025e-06
 Reference value :  1.75029e-06
 Reference value :  1.75039e-06
 Reference value :  1.75058e-06
 Reference value :  1.75091e-06
 Reference value :  1.75146e-06
 Reference value :  1.75209e-06
 Reference value :  1.75276e-06
 Reference value :  1.75350e-06
 Reference value :  1.75452e-06
 Reference value :  1.75529e-06
 Reference value :  1.75617e-06
 Reference value :  1.75693e-06
 Reference value :  1.75778e-06
 Reference value :  1.75879e-06
 Reference value :  1.75992e-06
 Reference value :  1.76105e-06
 Reference value :  1.76279e-06
 Reference value :  1.76452e-06
 Reference value :  1.76711e-06
 Reference value :  1.77015e-06
 Reference value :  1.77475e-06
 Reference value :  1.78386e-06
 Reference value :  1.79622e-06
 Reference value :  1.82079e-06
 Reference value :  1.86994e-06
 Reference value :  1.96498e-06
 Reference value :  2.00000e-06
 Reference value :  2.00001e-06
 Reference value :  2.00003e-06
 Reference value :  2.00007e-06
 Reference value :  2.00010e-06
 Reference value :  2.00010e-06
 Reference value :  2.00011e-06
 Reference value :  2.00013e-06
 Reference value :  2.00016e-06
 Reference value :  2.00023e-06
 Reference value :  2.00037e-06
 Reference value :  2.00055e-06
 Reference value :  2.00091e-06
 Reference value :  2.00142e-06
 Reference value :  2.00197e-06
 Reference value :  2.00256e-06
 Reference value :  2.00320e-06
 Reference value :  2.00388e-06
 Reference value :  2.00465e-06
 Reference value :  2.00549e-06
 Reference value :  2.00626e-06
 Reference value :  2.00706e-06
 Reference value :  2.00786e-06
 Reference value :  2.00873e-06
 Reference value :  2.00964e-06
 Reference value :  2.01095e-06
 Reference value :  2.01227e-06
 Reference value :  2.01416e-06
 Reference value :  2.01622e-06
 Reference value :  2.01828e-06
 Reference value :  2.02023e-06
 Reference value :  2.02190e-06
 Reference value :  2.02369e-06
 Reference value :  2.02546e-06
 Reference value :  2.02725e-06
 Reference value :  2.02946e-06
 Reference value :  2.03151e-06
 Reference value :  2.03471e-06
 Reference value :  2.03898e-06
 Reference value :  2.04753e-06
 Reference value :  2.05930e-06
 Reference value :  2.08045e-06
 Reference value :  2.11521e-06
 Reference value :  2.16675e-06
 Reference value :  2.24293e-06
 Reference value :  2.25010e-06
 Reference value :  2.25011e-06
 Reference value :  2.25013e-06
 Reference value :  2.25017e-06
 Reference value :  2.25020e-06
 Reference value :  2.25020e-06
 Reference value :  2.25020e-06
 Reference value :  2.25021e-06
 Reference value :  2.25021e-06
 Reference value :  2.25022e-06
 Reference value :  2.25025e-06
 Reference value :  2.25030e-06
 Reference value :  2.25039e-06
 Reference value :  2.25059e-06
 Reference value :  2.25093e-06
 Reference value :  2.25147e-06
 Reference value :  2.25211e-06
 Reference value :  2.25277e-06
 Reference value :  2.25351e-06
 Reference value :  2.25454e-06
 Reference value :  2.25528e-06
 Reference value :  2.25613e-06
 Reference value :  2.25702e-06
 Reference value :  2.25795e-06
 Reference value :  2.25924e-06
 Reference value :  2.26110e-06
 Reference value :  2.26327e-06
 Reference value :  2.26652e-06
 Reference value :  2.27077e-06
 Reference value :  2.27928e-06
 Reference value :  2.29630e-06
 Reference value :  2.32622e-06
 Reference value :  2.38607e-06
 Reference value :  2.44529e-06
 Reference value :  2.50000e-06
 Reference value :  2.50001e-06
 Reference value :  2.50003e-06
 Reference value :  2.50007e-06
 Reference value :  2.50010e-06
 Reference value :  2.50010e-06
 Reference value :  2.50011e-06
 Reference value :  2.50013e-06
 Reference value :  2.50016e-06
 Reference value :  2.50023e-06
 Reference value :  2.50037e-06
 Reference value :  2.50054e-06
 Reference value :  2.50090e-06
 Reference value :  2.50141e-06
 Reference value :  2.50196e-06
 Reference value :  2.50251e-06
 Reference value :  2.50321e-06
 Reference value :  2.50386e-06
 Reference value :  2.50463e-06
 Reference value :  2.50546e-06
 Reference value :  2.50636e-06
 Reference value :  2.50759e-06
 Reference value :  2.50882e-06
 Reference value :  2.51016e-06
 Reference value :  2.51166e-06
 Reference value :  2.51313e-06
 Reference value :  2.51457e-06
 Reference value :  2.51611e-06
 Reference value :  2.51766e-06
 Reference value :  2.51943e-06
 Reference value :  2.52297e-06
 Reference value :  2.53006e-06
 Reference value :  2.54246e-06
 Reference value :  2.56727e-06
 Reference value :  2.61688e-06
 Reference value :  2.71612e-06
 Reference value :  2.75010e-06
 Reference value :  2.75011e-06
 Reference value :  2.75013e-06
 Reference value :  2.75017e-06
 Reference value :  2.75020e-06
 Reference value :  2.75020e-06
 Reference value :  2.75020e-06
 Reference value :  2.75021e-06
 Reference value :  2.75021e-06
 Reference value :  2.75022e-06
 Reference value :  2.75025e-06
 Reference value :  2.75029e-06
 Reference value :  2.75039e-06
 Reference value :  2.75058e-06
 Reference value :  2.75091e-06
 Reference value :  2.75146e-06
 Reference value :  2.75208e-06
 Reference value :  2.75276e-06
 Reference value :  2.75349e-06
 Reference value :  2.75452e-06
 Reference value :  2.75528e-06
 Reference value :  2.75616e-06
 Reference value :  2.75692e-06
 Reference value :  2.75777e-06
 Reference value :  2.75878e-06
 Reference value :  2.75991e-06
 Reference value :  2.76102e-06
 Reference value :  2.76278e-06
 Reference value :  2.76447e-06
 Reference value :  2.76709e-06
 Reference value :  2.77007e-06
 Reference value :  2.77467e-06
 Reference value :  2.78320e-06
 Reference value :  2.79484e-06
 Reference value :  2.81669e-06
 Reference value :  2.86039e-06
 Reference value :  2.94088e-06
 Reference value :  3.00000e-06
 Reference value :  3.00001e-06
 Reference value :  3.00003e-06
 Reference value :  3.00007e-06
 Reference value :  3.00010e-06
 Reference value :  3.00010e-06
 Reference value :  3.00011e-06
 Reference value :  3.00013e-06
 Reference value :  3.00016e-06
 Reference value :  3.00023e-06
 Reference value :  3.00037e-06
 Reference value :  3.00055e-06
 Reference value :  3.00091e-06
 Reference value :  3.00142e-06
 Reference value :  3.00197e-06
 Reference value :  3.00255e-06
 Reference value :  3.00320e-06
 Reference value :  3.00388e-06
 Reference value :  3.00465e-06
 Reference value :  3.00549e-06
 Reference value :  3.00634e-06
 Reference value :  3.00712e-06
 Reference value :  3.00794e-06
 Reference value :  3.00883e-06
 Reference value :  3.00973e-06
 Reference value :  3.01099e-06
 Reference value :  3.01249e-06
 Reference value :  3.01478e-06
 Reference value :  3.01631e-06
 Reference value :  3.01804e-06
 Reference value :  3.01985e-06
 Reference value :  3.02129e-06
 Reference value :  3.02272e-06
 Reference value :  3.02443e-06
 Reference value :  3.02605e-06
 Reference value :  3.02756e-06
 Reference value :  3.02952e-06
 Reference value :  3.03181e-06
 Reference value :  3.03444e-06
 Reference value :  3.03870e-06
 Reference value :  3.04473e-06
 Reference value :  3.05452e-06
 Reference value :  3.07066e-06
 Reference value :  3.09671e-06
 Reference value :  3.14114e-06
 Reference value :  3.18813e-06
 Reference value :  3.22363e-06
 Reference value :  3.25010e-06
 Reference value :  3.25011e-06
 Reference value :  3.25013e-06
 Reference value :  3.25017e-06
 Reference value :  3.25020e-06
 Reference value :  3.25020e-06
 Reference value :  3.25020e-06
 Reference value :  3.25021e-06
 Reference value :  3.25021e-06
 Reference value :  3.25022e-06
 Reference value :  3.25025e-06
 Reference value :  3.25030e-06
 Reference value :  3.25039e-06
 Reference value :  3.25059e-06
 Reference value :  3.25093e-06
 Reference value :  3.25147e-06
 Reference value :  3.25210e-06
 Reference value :  3.25276e-06
 Reference value :  3.25351e-06
 Reference value :  3.25453e-06
 Reference value :  3.25528e-06
 Reference value :  3.25613e-06
 Reference value :  3.25702e-06
 Reference value :  3.25795e-06
 Reference value :  3.25924e-06
 Reference value :  3.26108e-06
 Reference value :  3.26326e-06
 Reference value :  3.26649e-06
 Reference value :  3.27075e-06
 Reference value :  3.27927e-06
 Reference value :  3.29631e-06
 Reference value :  3.32588e-06
 Reference value :  3.38500e-06
 Reference value :  3.49747e-06
 Reference value :  3.50000e-06
 Reference value :  3.50001e-06
 Reference value :  3.50003e-06
 Reference value :  3.50007e-06
 Reference value :  3.50010e-06
 Reference value :  3.50010e-06
 Reference value :  3.50011e-06
 Reference value :  3.50013e-06
 Reference value :  3.50016e-06
 Reference value :  3.50023e-06
 Reference value :  3.50037e-06
 Reference value :  3.50054e-06
 Reference value :  3.50090e-06
 Reference value :  3.50141e-06
 Reference value :  3.50196e-06
 Reference value :  3.50251e-06
 Reference value :  3.50321e-06
 Reference value :  3.50386e-06
 Reference value :  3.50463e-06
 Reference value :  3.50546e-06
 Reference value :  3.50631e-06
 Reference value :  3.50756e-06
 Reference value :  3.50875e-06
 Reference value :  3.51011e-06
 Reference value :  3.51166e-06
 Reference value :  3.51307e-06
 Reference value :  3.51443e-06
 Reference value :  3.51592e-06
 Reference value :  3.51742e-06
 Reference value :  3.51916e-06
 Reference value :  3.52263e-06
 Reference value :  3.52804e-06
 Reference value :  3.53884e-06
 Reference value :  3.56046e-06
 Reference value :  3.60368e-06
 Reference value :  3.69013e-06
 Reference value :  3.75010e-06
 Reference value :  3.75011e-06
 Reference value :  3.75013e-06
 Reference value :  3.75017e-06
 Reference value :  3.75020e-06
 Reference value :  3.75020e-06
 Reference value :  3.75020e-06
 Reference value :  3.75021e-06
 Reference value :  3.75021e-06
 Reference value :  3.75022e-06
 Reference value :  3.75025e-06
 Reference value :  3.75029e-06
 Reference value :  3.75039e-06
 Reference value :  3.75058e-06
 Reference value :  3.75091e-06
 Reference value :  3.75146e-06
 Reference value :  3.75208e-06
 Reference value :  3.75275e-06
 Reference value :  3.75349e-06
 Reference value :  3.75452e-06
 Reference value :  3.75528e-06
 Reference value :  3.75617e-06
 Reference value :  3.75692e-06
 Reference value :  3.75777e-06
 Reference value :  3.75879e-06
 Reference value :  3.75992e-06
 Reference value :  3.76105e-06
 Reference value :  3.76279e-06
 Reference value :  3.76453e-06
 Reference value :  3.76712e-06
 Reference value :  3.77016e-06
 Reference value :  3.77477e-06
 Reference value :  3.78383e-06
 Reference value :  3.79613e-06
 Reference value :  3.82029e-06
 Reference value :  3.86862e-06
 Reference value :  3.95991e-06
 Reference value :  4.00000e-06
 Reference value :  4.00001e-06
 Reference value :  4.00003e-06
 Reference value :  4.00007e-06
 Reference value :  4.00010e-06
 Reference value :  4.00010e-06
 Reference value :  4.00011e-06
 Reference value :  4.00013e-06
 Reference value :  4.00016e-06
 Reference value :  4.00023e-06
 Reference value :  4.00037e-06
 Reference value :  4.00055e-06
 Reference value :  4.00091e-06
 Reference value :  4.00142e-06
 Reference value :  4.00197e-06
 Reference value :  4.00256e-06
 Reference value :  4.00320e-06
 Reference value :  4.00388e-06
 Reference value :  4.00465e-06
 Reference value :  4.00549e-06
 Reference value :  4.00626e-06
 Reference value :  4.00706e-06
 Reference value :  4.00787e-06
 Reference value :  4.00875e-06
 Reference value :  4.00965e-06
 Reference value :  4.01089e-06
 Reference value :  4.01238e-06
 Reference value :  4.01411e-06
 Reference value :  4.01579e-06
 Reference value :  4.01748e-06
 Reference value :  4.01938e-06
 Reference value :  4.02093e-06
 Reference value :  4.02248e-06
 Reference value :  4.02430e-06
 Reference value :  4.02602e-06
 Reference value :  4.02762e-06
 Reference value :  4.02970e-06
 Reference value :  4.03192e-06
 Reference value :  4.03468e-06
 Reference value :  4.03879e-06
 Reference value :  4.04459e-06
 Reference value :  4.05394e-06
 Reference value :  4.06879e-06
 Reference value :  4.09289e-06
 Reference value :  4.12471e-06
 Reference value :  4.14267e-06
 Reference value :  4.16325e-06
 Reference value :  4.18510e-06
 Reference value :  4.22881e-06
 Reference value :  4.25010e-06
 Reference value :  4.25011e-06
 Reference value :  4.25013e-06
 Reference value :  4.25017e-06
 Reference value :  4.25020e-06
 Reference value :  4.25020e-06
 Reference value :  4.25020e-06
 Reference value :  4.25021e-06
 Reference value :  4.25021e-06
 Reference value :  4.25022e-06
 Reference value :  4.25025e-06
 Reference value :  4.25030e-06
 Reference value :  4.25039e-06
 Reference value :  4.25059e-06
 Reference value :  4.25092e-06
 Reference value :  4.25146e-06
 Reference value :  4.25210e-06
 Reference value :  4.25276e-06
 Reference value :  4.25350e-06
 Reference value :  4.25453e-06
 Reference value :  4.25527e-06
 Reference value :  4.25613e-06
 Reference value :  4.25701e-06
 Reference value :  4.25794e-06
 Reference value :  4.25923e-06
 Reference value :  4.26106e-06
 Reference value :  4.26326e-06
 Reference value :  4.26644e-06
 Reference value :  4.27073e-06
 Reference value :  4.27931e-06
 Reference value :  4.29647e-06
 Reference value :  4.32589e-06
 Reference value :  4.38475e-06
 Reference value :  4.49587e-06
 Reference value :  4.50000e-06
 Reference value :  4.50001e-06
 Reference value :  4.50003e-06
 Reference value :  4.50007e-06
 Reference value :  4.50010e-06
 Reference value :  4.50010e-06
 Reference value :  4.50011e-06
 Reference value :  4.50013e-06
 Reference value :  4.50016e-06
 Reference value :  4.50023e-06
 Reference value :  4.50037e-06
 Reference value :  4.50054e-06
 Reference value :  4.50090e-06
 Reference value :  4.50141e-06
 Reference value :  4.50196e-06
 Reference value :  4.50251e-06
 Reference value :  4.50321e-06
 Reference value :  4.50386e-06
 Reference value :  4.50463e-06
 Reference value :  4.50546e-06
 Reference value :  4.50631e-06
 Reference value :  4.50756e-06
 Reference value :  4.50874e-06
 Reference value :  4.51002e-06
 Reference value :  4.51145e-06
 Reference value :  4.51294e-06
 Reference value :  4.51436e-06
 Reference value :  4.51583e-06
 Reference value :  4.51743e-06
 Reference value :  4.51925e-06
 Reference value :  4.52260e-06
 Reference value :  4.52753e-06
 Reference value :  4.53732e-06
 Reference value :  4.55593e-06
 Reference value :  4.59158e-06
 Reference value :  4.66289e-06
 Reference value :  4.75010e-06
 Reference value :  4.75011e-06
 Reference value :  4.75013e-06
 Reference value :  4.75017e-06
 Reference value :  4.75020e-06
 Reference value :  4.75020e-06
 Reference value :  4.75020e-06
 Reference value :  4.75021e-06
 Reference value :  4.75021e-06
 Reference value :  4.75022e-06
 Reference value :  4.75025e-06
 Reference value :  4.75029e-06
 Reference value :  4.75039e-06
 Reference value :  4.75058e-06
 Reference value :  4.75091e-06
 Reference value :  4.75146e-06
 Reference value :  4.75208e-06
 Reference value :  4.75275e-06
 Reference value :  4.75349e-06
 Reference value :  4.75451e-06
 Reference value :  4.75527e-06
 Reference value :  4.75615e-06
 Reference value :  4.75691e-06
 Reference value :  4.75776e-06
 Reference value :  4.75878e-06
 Reference value :  4.75991e-06
 Reference value :  4.76104e-06
 Reference value :  4.76278e-06
 Reference value :  4.76450e-06
 Reference value :  4.76710e-06
 Reference value :  4.77012e-06
 Reference value :  4.77472e-06
 Reference value :  4.78366e-06
 Reference value :  4.79583e-06
 Reference value :  4.81930e-06
 Reference value :  4.86626e-06
 Reference value :  4.95505e-06
 Reference value :  5.00000e-06
 Reference value :  5.00001e-06
 Reference value :  5.00003e-06
 Reference value :  5.00007e-06
 Reference value :  5.00010e-06
 Reference value :  5.00010e-06
 Reference value :  5.00011e-06
 Reference value :  5.00013e-06
 Reference value :  5.00016e-06
 Reference value :  5.00023e-06
 Reference value :  5.00037e-06
 Reference value :  5.00055e-06
 Reference value :  5.00091e-06
 Reference value :  5.00142e-06
 Reference value :  5.00197e-06
 Reference value :  5.00255e-06
 Reference value :  5.00321e-06
 Reference value :  5.00390e-06
 Reference value :  5.00467e-06
 Reference value :  5.00551e-06
 Reference value :  5.00629e-06
 Reference value :  5.00710e-06
 Reference value :  5.00787e-06
 Reference value :  5.00877e-06
 Reference value :  5.00965e-06
 Reference value :  5.01083e-06
 Reference value :  5.01249e-06
 Reference value :  5.01388e-06
 Reference value :  5.01535e-06
 Reference value :  5.01682e-06
 Reference value :  5.01843e-06
 Reference value :  5.01993e-06
 Reference value :  5.02108e-06
 Reference value :  5.02216e-06
 Reference value :  5.02346e-06
 Reference value :  5.02481e-06
 Reference value :  5.02612e-06
 Reference value :  5.02770e-06
 Reference value :  5.02934e-06
 Reference value :  5.03209e-06
 Reference value :  5.03468e-06
 Reference value :  5.03986e-06
 Reference value :  5.05023e-06
 Reference value :  5.06431e-06
 Reference value :  5.07479e-06
 Reference value :  5.08426e-06
 Reference value :  5.09517e-06
 Reference value :  5.11099e-06
 Reference value :  5.13156e-06
 Reference value :  5.15178e-06
 Reference value :  5.17416e-06
 Reference value :  5.20112e-06
 Reference value :  5.25010e-06
 Reference value :  5.25011e-06
 Reference value :  5.25013e-06
 Reference value :  5.25017e-06
 Reference value :  5.25020e-06
 Reference value :  5.25020e-06
 Reference value :  5.25020e-06
 Reference value :  5.25021e-06
 Reference value :  5.25021e-06
 Reference value :  5.25022e-06
 Reference value :  5.25025e-06
 Reference value :  5.25029e-06
 Reference value :  5.25039e-06
 Reference value :  5.25058e-06
 Reference value :  5.25092e-06
 Reference value :  5.25146e-06
 Reference value :  5.25208e-06
 Reference value :  5.25275e-06
 Reference value :  5.25349e-06
 Reference value :  5.25451e-06
 Reference value :  5.25526e-06
 Reference value :  5.25612e-06
 Reference value :  5.25700e-06
 Reference value :  5.25792e-06
 Reference value :  5.25925e-06
 Reference value :  5.26102e-06
 Reference value :  5.26324e-06
 Reference value :  5.26639e-06
 Reference value :  5.27070e-06
 Reference value :  5.27932e-06
 Reference value :  5.29612e-06
 Reference value :  5.32506e-06
 Reference value :  5.38293e-06
 Reference value :  5.48940e-06
 Reference value :  5.50000e-06
 Reference value :  5.50001e-06
 Reference value :  5.50003e-06
 Reference value :  5.50007e-06
 Reference value :  5.50010e-06
 Reference value :  5.50010e-06
 Reference value :  5.50011e-06
 Reference value :  5.50013e-06
 Reference value :  5.50016e-06
 Reference value :  5.50023e-06
 Reference value :  5.50037e-06
 Reference value :  5.50054e-06
 Reference value :  5.50090e-06
 Reference value :  5.50141e-06
 Reference value :  5.50196e-06
 Reference value :  5.50251e-06
 Reference value :  5.50322e-06
 Reference value :  5.50386e-06
 Reference value :  5.50463e-06
 Reference value :  5.50546e-06
 Reference value :  5.50637e-06
 Reference value :  5.50760e-06
 Reference value :  5.50883e-06
 Reference value :  5.51008e-06
 Reference value :  5.51143e-06
 Reference value :  5.51306e-06
 Reference value :  5.51458e-06
 Reference value :  5.51614e-06
 Reference value :  5.51797e-06
 Reference value :  5.51999e-06
 Reference value :  5.52351e-06
 Reference value :  5.52864e-06
 Reference value :  5.53797e-06
 Reference value :  5.55498e-06
 Reference value :  5.58560e-06
 Reference value :  5.64472e-06
 Reference value :  5.75010e-06
 Reference value :  5.75011e-06
 Reference value :  5.75013e-06
 Reference value :  5.75017e-06
 Reference value :  5.75020e-06
 Reference value :  5.75020e-06
 Reference value :  5.75020e-06
 Reference value :  5.75021e-06
 Reference value :  5.75021e-06
 Reference value :  5.75022e-06
 Reference value :  5.75025e-06
 Reference value :  5.75029e-06
 Reference value :  5.75039e-06
 Reference value :  5.75058e-06
 Reference value :  5.75091e-06
 Reference value :  5.75146e-06
 Reference value :  5.75208e-06
 Reference value :  5.75275e-06
 Reference value :  5.75349e-06
 Reference value :  5.75451e-06
 Reference value :  5.75528e-06
 Reference value :  5.75616e-06
 Reference value :  5.75692e-06
 Reference value :  5.75777e-06
 Reference value :  5.75878e-06
 Reference value :  5.75992e-06
 Reference value :  5.76104e-06
 Reference value :  5.76278e-06
 Reference value :  5.76452e-06
 Reference value :  5.76710e-06
 Reference value :  5.77013e-06
 Reference value :  5.77473e-06
 Reference value :  5.78381e-06
 Reference value :  5.79614e-06
 Reference value :  5.82051e-06
 Reference value :  5.86924e-06
 Reference value :  5.96156e-06
 Reference value :  6.00000e-06
 Reference value :  6.00001e-06
 Reference value :  6.00003e-06
 Reference value :  6.00007e-06
 Reference value :  6.00010e-06
 Reference value :  6.00010e-06
 Reference value :  6.00011e-06
 Reference value :  6.00013e-06
 Reference value :  6.00016e-06
 Reference value :  6.00023e-06
 Reference value :  6.00037e-06
 Reference value :  6.00055e-06
 Reference value :  6.00091e-06
 Reference value :  6.00142e-06
 Reference value :  6.00197e-06
 Reference value :  6.00256e-06
 Reference value :  6.00321e-06
 Reference value :  6.00389e-06
 Reference value :  6.00465e-06
 Reference value :  6.00549e-06
 Reference value :  6.00634e-06
 Reference value :  6.00712e-06
 Reference value :  6.00783e-06
 Reference value :  6.00867e-06
 Reference value :  6.00959e-06
 Reference value :  6.01070e-06
 Reference value :  6.01224e-06
 Reference value :  6.01386e-06
 Reference value :  6.01552e-06
 Reference value :  6.01714e-06
 Reference value :  6.01870e-06
 Reference value :  6.02034e-06
 Reference value :  6.02155e-06
 Reference value :  6.02270e-06
 Reference value :  6.02406e-06
 Reference value :  6.02546e-06
 Reference value :  6.02674e-06
 Reference value :  6.02845e-06
 Reference value :  6.03028e-06
 Reference value :  6.03278e-06
 Reference value :  6.03621e-06
 Reference value :  6.04286e-06
 Reference value :  6.04813e-06
 Reference value :  6.05429e-06
 Reference value :  6.06034e-06
 Reference value :  6.07057e-06
 Reference value :  6.08400e-06
 Reference value :  6.11088e-06
 Reference value :  6.15963e-06
 Reference value :  6.22766e-06
 Reference value :  6.25010e-06
 Reference value :  6.25011e-06
 Reference value :  6.25013e-06
 Reference value :  6.25017e-06
 Reference value :  6.25020e-06
 Reference value :  6.25020e-06
 Reference value :  6.25020e-06
 Reference value :  6.25021e-06
 Reference value :  6.25021e-06
 Reference value :  6.25022e-06
 Reference value :  6.25025e-06
 Reference value :  6.25029e-06
 Reference value :  6.25039e-06
 Reference value :  6.25058e-06
 Reference value :  6.25092e-06
 Reference value :  6.25146e-06
 Reference value :  6.25208e-06
 Reference value :  6.25275e-06
 Reference value :  6.25349e-06
 Reference value :  6.25451e-06
 Reference value :  6.25526e-06
 Reference value :  6.25612e-06
 Reference value :  6.25700e-06
 Reference value :  6.25792e-06
 Reference value :  6.25925e-06
 Reference value :  6.26102e-06
 Reference value :  6.26324e-06
 Reference value :  6.26639e-06
 Reference value :  6.27070e-06
 Reference value :  6.27931e-06
 Reference value :  6.29610e-06
 Reference value :  6.32499e-06
 Reference value :  6.38278e-06
 Reference value :  6.48911e-06
 Reference value :  6.50000e-06
 Reference value :  6.50001e-06
 Reference value :  6.50003e-06
 Reference value :  6.50007e-06
 Reference value :  6.50010e-06
 Reference value :  6.50010e-06
 Reference value :  6.50011e-06
 Reference value :  6.50013e-06
 Reference value :  6.50016e-06
 Reference value :  6.50023e-06
 Reference value :  6.50037e-06
 Reference value :  6.50054e-06
 Reference value :  6.50090e-06
 Reference value :  6.50141e-06
 Reference value :  6.50196e-06
 Reference value :  6.50251e-06
 Reference value :  6.50321e-06
 Reference value :  6.50386e-06
 Reference value :  6.50463e-06
 Reference value :  6.50546e-06
 Reference value :  6.50631e-06
 Reference value :  6.50756e-06
 Reference value :  6.50875e-06
 Reference value :  6.51012e-06
 Reference value :  6.51166e-06
 Reference value :  6.51307e-06
 Reference value :  6.51451e-06
 Reference value :  6.51602e-06
 Reference value :  6.51780e-06
 Reference value :  6.51979e-06
 Reference value :  6.52339e-06
 Reference value :  6.52865e-06
 Reference value :  6.53849e-06
 Reference value :  6.55673e-06
 Reference value :  6.58998e-06
 Reference value :  6.65489e-06
 Reference value :  6.75010e-06
 Reference value :  6.75011e-06
 Reference value :  6.75013e-06
 Reference value :  6.75017e-06
 Reference value :  6.75020e-06
 Reference value :  6.75020e-06
 Reference value :  6.75020e-06
 Reference value :  6.75021e-06
 Reference value :  6.75021e-06
 Reference value :  6.75022e-06
 Reference value :  6.75025e-06
 Reference value :  6.75029e-06
 Reference value :  6.75039e-06
 Reference value :  6.75058e-06
 Reference value :  6.75091e-06
 Reference value :  6.75146e-06
 Reference value :  6.75208e-06
 Reference value :  6.75275e-06
 Reference value :  6.75349e-06
 Reference value :  6.75451e-06
 Reference value :  6.75528e-06
 Reference value :  6.75616e-06
 Reference value :  6.75692e-06
 Reference value :  6.75777e-06
 Reference value :  6.75878e-06
 Reference value :  6.75991e-06
 Reference value :  6.76104e-06
 Reference value :  6.76278e-06
 Reference value :  6.76451e-06
 Reference value :  6.76710e-06
 Reference value :  6.77013e-06
 Reference value :  6.77472e-06
 Reference value :  6.78379e-06
 Reference value :  6.79610e-06
 Reference value :  6.82037e-06
 Reference value :  6.86890e-06
 Reference value :  6.96092e-06
 Reference value :  7.00000e-06
 Reference value :  7.00001e-06
 Reference value :  7.00003e-06
 Reference value :  7.00007e-06
 Reference value :  7.00010e-06
 Reference value :  7.00010e-06
 Reference value :  7.00011e-06
 Reference value :  7.00013e-06
 Reference value :  7.00016e-06
 Reference value :  7.00023e-06
 Reference value :  7.00037e-06
 Reference value :  7.00055e-06
 Reference value :  7.00091e-06
 Reference value :  7.00142e-06
 Reference value :  7.00197e-06
 Reference value :  7.00255e-06
 Reference value :  7.00320e-06
 Reference value :  7.00388e-06
 Reference value :  7.00465e-06
 Reference value :  7.00549e-06
 Reference value :  7.00626e-06
 Reference value :  7.00706e-06
 Reference value :  7.00782e-06
 Reference value :  7.00870e-06
 Reference value :  7.00958e-06
 Reference value :  7.01074e-06
 Reference value :  7.01241e-06
 Reference value :  7.01427e-06
 Reference value :  7.01574e-06
 Reference value :  7.01732e-06
 Reference value :  7.01875e-06
 Reference value :  7.02036e-06
 Reference value :  7.02170e-06
 Reference value :  7.02303e-06
 Reference value :  7.02459e-06
 Reference value :  7.02609e-06
 Reference value :  7.02752e-06
 Reference value :  7.02932e-06
 Reference value :  7.03160e-06
 Reference value :  7.03404e-06
 Reference value :  7.03810e-06
 Reference value :  7.04212e-06
 Reference value :  7.04834e-06
 Reference value :  7.05587e-06
 Reference value :  7.07092e-06
 Reference value :  7.09425e-06
 Reference value :  7.13298e-06
 Reference value :  7.20526e-06
 Reference value :  7.25010e-06
 Reference value :  7.25011e-06
 Reference value :  7.25013e-06
 Reference value :  7.25017e-06
 Reference value :  7.25020e-06
 Reference value :  7.25020e-06
 Reference value :  7.25020e-06
 Reference value :  7.25021e-06
 Reference value :  7.25021e-06
 Reference value :  7.25022e-06
 Reference value :  7.25025e-06
 Reference value :  7.25029e-06
 Reference value :  7.25039e-06
 Reference value :  7.25058e-06
 Reference value :  7.25092e-06
 Reference value :  7.25146e-06
 Reference value :  7.25209e-06
 Reference value :  7.25276e-06
 Reference value :  7.25350e-06
 Reference value :  7.25452e-06
 Reference value :  7.25525e-06
 Reference value :  7.25609e-06
 Reference value :  7.25698e-06
 Reference value :  7.25790e-06
 Reference value :  7.25919e-06
 Reference value :  7.26105e-06
 Reference value :  7.26322e-06
 Reference value :  7.26640e-06
 Reference value :  7.27065e-06
 Reference value :  7.27914e-06
 Reference value :  7.29606e-06
 Reference value :  7.32476e-06
 Reference value :  7.38216e-06
 Reference value :  7.49094e-06
 Reference value :  7.50000e-06
 Reference value :  7.50001e-06
 Reference value :  7.50003e-06
 Reference value :  7.50007e-06
 Reference value :  7.50010e-06
 Reference value :  7.50010e-06
 Reference value :  7.50011e-06
 Reference value :  7.50013e-06
 Reference value :  7.50016e-06
 Reference value :  7.50023e-06
 Reference value :  7.50037e-06
 Reference value :  7.50055e-06
 Reference value :  7.50090e-06
 Reference value :  7.50141e-06
 Reference value :  7.50195e-06
 Reference value :  7.50250e-06
 Reference value :  7.50319e-06
 Reference value :  7.50384e-06
 Reference value :  7.50462e-06
 Reference value :  7.50544e-06
 Reference value :  7.50635e-06
 Reference value :  7.50759e-06
 Reference value :  7.50882e-06
 Reference value :  7.51020e-06
 Reference value :  7.51176e-06
 Reference value :  7.51320e-06
 Reference value :  7.51458e-06
 Reference value :  7.51607e-06
 Reference value :  7.51767e-06
 Reference value :  7.51948e-06
 Reference value :  7.52288e-06
 Reference value :  7.52780e-06
 Reference value :  7.53763e-06
 Reference value :  7.55626e-06
 Reference value :  7.59169e-06
 Reference value :  7.66254e-06
 Reference value :  7.75010e-06
 Reference value :  7.75011e-06
 Reference value :  7.75013e-06
 Reference value :  7.75017e-06
 Reference value :  7.75020e-06
 Reference value :  7.75020e-06
 Reference value :  7.75020e-06
 Reference value :  7.75021e-06
 Reference value :  7.75021e-06
 Reference value :  7.75022e-06
 Reference value :  7.75025e-06
 Reference value :  7.75029e-06
 Reference value :  7.75039e-06
 Reference value :  7.75058e-06
 Reference value :  7.75092e-06
 Reference value :  7.75146e-06
 Reference value :  7.75209e-06
 Reference value :  7.75276e-06
 Reference value :  7.75350e-06
 Reference value :  7.75452e-06
 Reference value :  7.75527e-06
 Reference value :  7.75613e-06
 Reference value :  7.75688e-06
 Reference value :  7.75771e-06
 Reference value :  7.75872e-06
 Reference value :  7.75985e-06
 Reference value :  7.76097e-06
 Reference value :  7.76274e-06
 Reference value :  7.76442e-06
 Reference value :  7.76704e-06
 Reference value :  7.77004e-06
 Reference value :  7.77463e-06
 Reference value :  7.78332e-06
 Reference value :  7.79514e-06
 Reference value :  7.81734e-06
 Reference value :  7.86175e-06
 Reference value :  7.94479e-06
 Reference value :  8.00000e-06
 Reference value :  8.00001e-06
 Reference value :  8.00003e-06
 Reference value :  8.00007e-06
 Reference value :  8.00010e-06
 Reference value :  8.00010e-06
 Reference value :  8.00011e-06
 Reference value :  8.00013e-06
 Reference value :  8.00016e-06
 Reference value :  8.00023e-06
 Reference value :  8.00037e-06
 Reference value :  8.00055e-06
 Reference value :  8.00091e-06
 Reference value :  8.00142e-06
 Reference value :  8.00196e-06
 Reference value :  8.00254e-06
 Reference value :  8.00319e-06
 Reference value :  8.00387e-06
 Reference value :  8.00465e-06
 Reference value :  8.00548e-06
 Reference value :  8.00633e-06
 Reference value :  8.00713e-06
 Reference value :  8.00789e-06
 Reference value :  8.00878e-06
 Reference value :  8.00967e-06
 Reference value :  8.01084e-06
 Reference value :  8.01252e-06
 Reference value :  8.01445e-06
 Reference value :  8.01595e-06
 Reference value :  8.01757e-06
 Reference value :  8.01912e-06
 Reference value :  8.02087e-06
 Reference value :  8.02272e-06
 Reference value :  8.02452e-06
 Reference value :  8.02649e-06
 Reference value :  8.02839e-06
 Reference value :  8.03114e-06
 Reference value :  8.03508e-06
 Reference value :  8.04170e-06
 Reference value :  8.05271e-06
 Reference value :  8.06984e-06
 Reference value :  8.09989e-06
 Reference value :  8.15698e-06
 Reference value :  8.25010e-06
 Reference value :  8.25011e-06
 Reference value :  8.25013e-06
 Reference value :  8.25017e-06
 Reference value :  8.25020e-06
 Reference value :  8.25020e-06
 Reference value :  8.25020e-06
 Reference value :  8.25021e-06
 Reference value :  8.25021e-06
 Reference value :  8.25022e-06
 Reference value :  8.25025e-06
 Reference value :  8.25030e-06
 Reference value :  8.25039e-06
 Reference value :  8.25059e-06
 Reference value :  8.25098e-06
 Reference value :  8.25148e-06
 Reference value :  8.25216e-06
 Reference value :  8.25280e-06
 Reference value :  8.25356e-06
 Reference value :  8.25460e-06
 Reference value :  8.25559e-06
 Reference value :  8.25697e-06
 Reference value :  8.25860e-06
 Reference value :  8.26009e-06
 Reference value :  8.26262e-06
 Reference value :  8.26531e-06
 Reference value :  8.26976e-06
 Reference value :  8.27659e-06
 Reference value :  8.29027e-06
 Reference value :  8.31762e-06
 Reference value :  8.36997e-06
 Reference value :  8.47466e-06
 Reference value :  8.50000e-06
No. of Data Rows : 1326
ngspice-44 done
