
Note: Compatibility modes selected: hs a


Circuit: ** sch_path: /home/madra/cace/sar-adc-using-sky130-pdk/runs/run_2025-09-01_20-02-16/parameters/inl/run_1/sar_output.sch

option SCALE: Scale is set to 1e-06 for instance and model parameters
option SCALE: Scale is set to 1e-06 for instance and model parameters
option SCALE: Scale is set to 1e-06 for instance and model parameters
option SCALE: Scale is set to 1e-06 for instance and model parameters
Doing analysis at TEMP = 27.000000 and TNOM = 27.000000

Using KLU as Direct Linear Solver
Operating point simulation skipped by 'uic',
  now using transient initial conditions.
 Reference value :  1.00000e-12
 Reference value :  1.08280e-12
 Reference value :  1.41399e-12
 Reference value :  2.19599e-12
 Reference value :  4.23695e-12
 Reference value :  1.34079e-11
 Reference value :  5.51776e-11
 Reference value :  1.04774e-10
 Reference value :  1.33416e-10
 Reference value :  4.00742e-10
 Reference value :  9.33784e-10
 Reference value :  1.86522e-09
 Reference value :  3.20957e-09
 Reference value :  4.06201e-09
 Reference value :  5.10348e-09
 Reference value :  6.93114e-09
 Reference value :  8.38729e-09
 Reference value :  1.02976e-08
 Reference value :  1.12463e-08
 Reference value :  1.28466e-08
 Reference value :  1.48142e-08
 Reference value :  2.26652e-08
 Reference value :  3.09004e-08
 Reference value :  3.92598e-08
 Reference value :  5.04995e-08
 Reference value :  9.99406e-08
 Reference value :  2.42383e-07
 Reference value :  2.50110e-07
 Reference value :  2.50170e-07
 Reference value :  2.50208e-07
 Reference value :  2.50223e-07
 Reference value :  2.50253e-07
 Reference value :  2.50407e-07
 Reference value :  2.50568e-07
 Reference value :  2.51034e-07
 Reference value :  2.51910e-07
 Reference value :  2.53039e-07
 Reference value :  2.53667e-07
 Reference value :  2.54222e-07
 Reference value :  2.56166e-07
 Reference value :  2.58437e-07
 Reference value :  2.65884e-07
 Reference value :  2.84634e-07
 Reference value :  3.43782e-07
 Reference value :  5.00000e-07
 Reference value :  5.00030e-07
 Reference value :  5.00100e-07
 Reference value :  5.00124e-07
 Reference value :  5.00220e-07
 Reference value :  5.00863e-07
 Reference value :  5.01815e-07
 Reference value :  5.02775e-07
 Reference value :  5.03342e-07
 Reference value :  5.04594e-07
 Reference value :  5.06433e-07
 Reference value :  5.07731e-07
 Reference value :  5.10014e-07
 Reference value :  5.11177e-07
 Reference value :  5.13779e-07
 Reference value :  5.17459e-07
 Reference value :  5.27687e-07
 Reference value :  6.21624e-07
 Reference value :  7.50110e-07
 Reference value :  7.50170e-07
 Reference value :  7.50208e-07
 Reference value :  7.50255e-07
 Reference value :  7.50597e-07
 Reference value :  7.51257e-07
 Reference value :  7.51700e-07
 Reference value :  7.52703e-07
 Reference value :  7.54007e-07
 Reference value :  7.55255e-07
 Reference value :  7.56926e-07
 Reference value :  7.67049e-07
 Reference value :  8.13876e-07
 Reference value :  1.00000e-06
 Reference value :  1.00003e-06
 Reference value :  1.00010e-06
 Reference value :  1.00016e-06
 Reference value :  1.00052e-06
 Reference value :  1.00131e-06
 Reference value :  1.00231e-06
 Reference value :  1.00333e-06
 Reference value :  1.00449e-06
 Reference value :  1.00586e-06
 Reference value :  1.00855e-06
 Reference value :  1.01010e-06
 Reference value :  1.01280e-06
 Reference value :  1.01473e-06
 Reference value :  1.01699e-06
 Reference value :  1.01929e-06
 Reference value :  1.02585e-06
 Reference value :  1.05293e-06
 Reference value :  1.12280e-06
 Reference value :  1.25010e-06
 Reference value :  1.25013e-06
 Reference value :  1.25020e-06
 Reference value :  1.25026e-06
 Reference value :  1.25045e-06
 Reference value :  1.25084e-06
 Reference value :  1.25171e-06
 Reference value :  1.25273e-06
 Reference value :  1.25404e-06
 Reference value :  1.25527e-06
 Reference value :  1.25600e-06
 Reference value :  1.25834e-06
 Reference value :  1.27672e-06
 Reference value :  1.32786e-06
 Reference value :  1.50001e-06
 Reference value :  1.50010e-06
 Reference value :  1.50016e-06
 Reference value :  1.50034e-06
 Reference value :  1.50086e-06
 Reference value :  1.50181e-06
 Reference value :  1.50278e-06
 Reference value :  1.50333e-06
 Reference value :  1.50455e-06
 Reference value :  1.50549e-06
 Reference value :  1.50716e-06
 Reference value :  1.50888e-06
 Reference value :  1.51096e-06
 Reference value :  1.51813e-06
 Reference value :  1.55358e-06
 Reference value :  1.66321e-06
 Reference value :  1.75011e-06
 Reference value :  1.75020e-06
 Reference value :  1.75026e-06
 Reference value :  1.75060e-06
 Reference value :  1.75127e-06
 Reference value :  1.75215e-06
 Reference value :  1.75351e-06
 Reference value :  1.75461e-06
 Reference value :  1.75598e-06
 Reference value :  1.76020e-06
 Reference value :  1.79261e-06
 Reference value :  2.00001e-06
 Reference value :  2.00011e-06
 Reference value :  2.00022e-06
 Reference value :  2.00052e-06
 Reference value :  2.00131e-06
 Reference value :  2.00231e-06
 Reference value :  2.00278e-06
 Reference value :  2.00332e-06
 Reference value :  2.00449e-06
 Reference value :  2.00586e-06
 Reference value :  2.00853e-06
 Reference value :  2.01007e-06
 Reference value :  2.01150e-06
 Reference value :  2.01276e-06
 Reference value :  2.01376e-06
 Reference value :  2.01470e-06
 Reference value :  2.01584e-06
 Reference value :  2.01789e-06
 Reference value :  2.02068e-06
 Reference value :  2.02962e-06
 Reference value :  2.03956e-06
 Reference value :  2.04433e-06
 Reference value :  2.04780e-06
 Reference value :  2.05611e-06
 Reference value :  2.06609e-06
 Reference value :  2.07169e-06
 Reference value :  2.10050e-06
 Reference value :  2.19789e-06
 Reference value :  2.25011e-06
 Reference value :  2.25017e-06
 Reference value :  2.25022e-06
 Reference value :  2.25045e-06
 Reference value :  2.25084e-06
 Reference value :  2.25171e-06
 Reference value :  2.25273e-06
 Reference value :  2.25396e-06
 Reference value :  2.25513e-06
 Reference value :  2.25661e-06
 Reference value :  2.25981e-06
 Reference value :  2.26662e-06
 Reference value :  2.32129e-06
 Reference value :  2.50001e-06
 Reference value :  2.50007e-06
 Reference value :  2.50012e-06
 Reference value :  2.50034e-06
 Reference value :  2.50086e-06
 Reference value :  2.50175e-06
 Reference value :  2.50268e-06
 Reference value :  2.50379e-06
 Reference value :  2.50522e-06
 Reference value :  2.50671e-06
 Reference value :  2.50832e-06
 Reference value :  2.51030e-06
 Reference value :  2.51796e-06
 Reference value :  2.54251e-06
 Reference value :  2.75010e-06
 Reference value :  2.75013e-06
 Reference value :  2.75020e-06
 Reference value :  2.75026e-06
 Reference value :  2.75044e-06
 Reference value :  2.75083e-06
 Reference value :  2.75170e-06
 Reference value :  2.75270e-06
 Reference value :  2.75401e-06
 Reference value :  2.75527e-06
 Reference value :  2.75598e-06
 Reference value :  2.75680e-06
 Reference value :  2.75871e-06
 Reference value :  2.76345e-06
 Reference value :  2.79469e-06
 Reference value :  3.00000e-06
 Reference value :  3.00007e-06
 Reference value :  3.00012e-06
 Reference value :  3.00034e-06
 Reference value :  3.00086e-06
 Reference value :  3.00231e-06
 Reference value :  3.00334e-06
 Reference value :  3.00519e-06
 Reference value :  3.00648e-06
 Reference value :  3.00943e-06
 Reference value :  3.01155e-06
 Reference value :  3.01351e-06
 Reference value :  3.01529e-06
 Reference value :  3.01726e-06
 Reference value :  3.01960e-06
 Reference value :  3.02755e-06
 Reference value :  3.04616e-06
 Reference value :  3.06758e-06
 Reference value :  3.08456e-06
 Reference value :  3.09728e-06
 Reference value :  3.11871e-06
 Reference value :  3.15564e-06
 Reference value :  3.23301e-06
 Reference value :  3.25013e-06
 Reference value :  3.25021e-06
 Reference value :  3.25032e-06
 Reference value :  3.25083e-06
 Reference value :  3.25170e-06
 Reference value :  3.25271e-06
 Reference value :  3.25401e-06
 Reference value :  3.25525e-06
 Reference value :  3.25676e-06
 Reference value :  3.26312e-06
 Reference value :  3.29410e-06
 Reference value :  3.34024e-06
 Reference value :  3.35630e-06
 Reference value :  3.38582e-06
 Reference value :  3.43066e-06
 Reference value :  3.50000e-06
 Reference value :  3.50007e-06
 Reference value :  3.50012e-06
 Reference value :  3.50034e-06
 Reference value :  3.50086e-06
 Reference value :  3.50174e-06
 Reference value :  3.50266e-06
 Reference value :  3.50320e-06
 Reference value :  3.50440e-06
 Reference value :  3.50602e-06
 Reference value :  3.50668e-06
 Reference value :  3.50832e-06
 Reference value :  3.51030e-06
 Reference value :  3.52425e-06
 Reference value :  3.73089e-06
 Reference value :  3.75013e-06
 Reference value :  3.75021e-06
 Reference value :  3.75032e-06
 Reference value :  3.75084e-06
 Reference value :  3.75171e-06
 Reference value :  3.75273e-06
 Reference value :  3.75350e-06
 Reference value :  3.75401e-06
 Reference value :  3.75525e-06
 Reference value :  3.75678e-06
 Reference value :  3.75871e-06
 Reference value :  3.76167e-06
 Reference value :  3.78045e-06
 Reference value :  3.85648e-06
 Reference value :  4.00003e-06
 Reference value :  4.00011e-06
 Reference value :  4.00022e-06
 Reference value :  4.00086e-06
 Reference value :  4.00182e-06
 Reference value :  4.00334e-06
 Reference value :  4.00519e-06
 Reference value :  4.00582e-06
 Reference value :  4.00733e-06
 Reference value :  4.01046e-06
 Reference value :  4.01152e-06
 Reference value :  4.01350e-06
 Reference value :  4.01531e-06
 Reference value :  4.01841e-06
 Reference value :  4.02341e-06
 Reference value :  4.02557e-06
 Reference value :  4.03070e-06
 Reference value :  4.03802e-06
 Reference value :  4.06887e-06
 Reference value :  4.13455e-06
 Reference value :  4.25011e-06
 Reference value :  4.25020e-06
 Reference value :  4.25026e-06
 Reference value :  4.25054e-06
 Reference value :  4.25099e-06
 Reference value :  4.25194e-06
 Reference value :  4.25312e-06
 Reference value :  4.25384e-06
 Reference value :  4.25441e-06
 Reference value :  4.25504e-06
 Reference value :  4.25649e-06
 Reference value :  4.26140e-06
 Reference value :  4.31236e-06
 Reference value :  4.50000e-06
 Reference value :  4.50007e-06
 Reference value :  4.50012e-06
 Reference value :  4.50035e-06
 Reference value :  4.50145e-06
 Reference value :  4.50245e-06
 Reference value :  4.50350e-06
 Reference value :  4.50489e-06
 Reference value :  4.50641e-06
 Reference value :  4.50828e-06
 Reference value :  4.51020e-06
 Reference value :  4.51246e-06
 Reference value :  4.54307e-06
 Reference value :  4.75011e-06
 Reference value :  4.75020e-06
 Reference value :  4.75025e-06
 Reference value :  4.75074e-06
 Reference value :  4.75147e-06
 Reference value :  4.75311e-06
 Reference value :  4.75440e-06
 Reference value :  4.75643e-06
 Reference value :  4.76454e-06
 Reference value :  4.85248e-06
 Reference value :  5.00003e-06
 Reference value :  5.00010e-06
 Reference value :  5.00016e-06
 Reference value :  5.00059e-06
 Reference value :  5.00196e-06
 Reference value :  5.00297e-06
 Reference value :  5.00410e-06
 Reference value :  5.00526e-06
 Reference value :  5.00739e-06
 Reference value :  5.01046e-06
 Reference value :  5.01186e-06
 Reference value :  5.01441e-06
 Reference value :  5.01633e-06
 Reference value :  5.01879e-06
 Reference value :  5.02480e-06
 Reference value :  5.03486e-06
 Reference value :  5.04045e-06
 Reference value :  5.05181e-06
 Reference value :  5.06937e-06
 Reference value :  5.08162e-06
 Reference value :  5.10817e-06
 Reference value :  5.13478e-06
 Reference value :  5.14683e-06
 Reference value :  5.15505e-06
 Reference value :  5.17106e-06
 Reference value :  5.21593e-06
 Reference value :  5.25011e-06
 Reference value :  5.25020e-06
 Reference value :  5.25026e-06
 Reference value :  5.25054e-06
 Reference value :  5.25143e-06
 Reference value :  5.25241e-06
 Reference value :  5.25381e-06
 Reference value :  5.25435e-06
 Reference value :  5.25558e-06
 Reference value :  5.25724e-06
 Reference value :  5.26449e-06
 Reference value :  5.34598e-06
 Reference value :  5.50001e-06
 Reference value :  5.50010e-06
 Reference value :  5.50016e-06
 Reference value :  5.50059e-06
 Reference value :  5.50145e-06
 Reference value :  5.50245e-06
 Reference value :  5.50350e-06
 Reference value :  5.50568e-06
 Reference value :  5.50731e-06
 Reference value :  5.50925e-06
 Reference value :  5.51124e-06
 Reference value :  5.51897e-06
 Reference value :  5.57341e-06
 Reference value :  5.75011e-06
 Reference value :  5.75020e-06
 Reference value :  5.75025e-06
 Reference value :  5.75054e-06
 Reference value :  5.75147e-06
 Reference value :  5.75311e-06
 Reference value :  5.75440e-06
 Reference value :  5.75643e-06
 Reference value :  5.76454e-06
 Reference value :  5.85143e-06
 Reference value :  6.00003e-06
 Reference value :  6.00011e-06
 Reference value :  6.00022e-06
 Reference value :  6.00093e-06
 Reference value :  6.00196e-06
 Reference value :  6.00245e-06
 Reference value :  6.00349e-06
 Reference value :  6.00466e-06
 Reference value :  6.00659e-06
 Reference value :  6.01046e-06
 Reference value :  6.01186e-06
 Reference value :  6.01441e-06
 Reference value :  6.01634e-06
 Reference value :  6.02004e-06
 Reference value :  6.02907e-06
 Reference value :  6.03840e-06
 Reference value :  6.04597e-06
 Reference value :  6.04971e-06
 Reference value :  6.05960e-06
 Reference value :  6.07783e-06
 Reference value :  6.14248e-06
 Reference value :  6.25011e-06
 Reference value :  6.25020e-06
 Reference value :  6.25026e-06
 Reference value :  6.25054e-06
 Reference value :  6.25143e-06
 Reference value :  6.25309e-06
 Reference value :  6.25434e-06
 Reference value :  6.25642e-06
 Reference value :  6.26124e-06
 Reference value :  6.30459e-06
 Reference value :  6.38752e-06
 Reference value :  6.43100e-06
 Reference value :  6.46007e-06
 Reference value :  6.50000e-06
 Reference value :  6.50007e-06
 Reference value :  6.50012e-06
 Reference value :  6.50035e-06
 Reference value :  6.50093e-06
 Reference value :  6.50196e-06
 Reference value :  6.50297e-06
 Reference value :  6.50409e-06
 Reference value :  6.50568e-06
 Reference value :  6.50732e-06
 Reference value :  6.50928e-06
 Reference value :  6.51126e-06
 Reference value :  6.51885e-06
 Reference value :  6.57006e-06
 Reference value :  6.75010e-06
 Reference value :  6.75017e-06
 Reference value :  6.75022e-06
 Reference value :  6.75032e-06
 Reference value :  6.75074e-06
 Reference value :  6.75147e-06
 Reference value :  6.75245e-06
 Reference value :  6.75382e-06
 Reference value :  6.75503e-06
 Reference value :  6.75644e-06
 Reference value :  6.76116e-06
 Reference value :  6.78299e-06
 Reference value :  6.94309e-06
 Reference value :  7.00001e-06
 Reference value :  7.00007e-06
 Reference value :  7.00012e-06
 Reference value :  7.00035e-06
 Reference value :  7.00093e-06
 Reference value :  7.00196e-06
 Reference value :  7.00245e-06
 Reference value :  7.00349e-06
 Reference value :  7.00466e-06
 Reference value :  7.00588e-06
 Reference value :  7.00739e-06
 Reference value :  7.01046e-06
 Reference value :  7.01186e-06
 Reference value :  7.01441e-06
 Reference value :  7.01634e-06
 Reference value :  7.01878e-06
 Reference value :  7.02482e-06
 Reference value :  7.03142e-06
 Reference value :  7.04011e-06
 Reference value :  7.05566e-06
 Reference value :  7.07680e-06
 Reference value :  7.18169e-06
 Reference value :  7.25011e-06
 Reference value :  7.25020e-06
 Reference value :  7.25026e-06
 Reference value :  7.25039e-06
 Reference value :  7.25097e-06
 Reference value :  7.25193e-06
 Reference value :  7.25377e-06
 Reference value :  7.25496e-06
 Reference value :  7.25641e-06
 Reference value :  7.26122e-06
 Reference value :  7.30430e-06
 Reference value :  7.50000e-06
 Reference value :  7.50007e-06
 Reference value :  7.50012e-06
 Reference value :  7.50035e-06
 Reference value :  7.50093e-06
 Reference value :  7.50196e-06
 Reference value :  7.50293e-06
 Reference value :  7.50347e-06
 Reference value :  7.50560e-06
 Reference value :  7.50743e-06
 Reference value :  7.50928e-06
 Reference value :  7.51138e-06
 Reference value :  7.51873e-06
 Reference value :  7.55881e-06
 Reference value :  7.75010e-06
 Reference value :  7.75017e-06
 Reference value :  7.75022e-06
 Reference value :  7.75039e-06
 Reference value :  7.75099e-06
 Reference value :  7.75245e-06
 Reference value :  7.75440e-06
 Reference value :  7.75644e-06
 Reference value :  7.75808e-06
 Reference value :  7.76026e-06
 Reference value :  7.76722e-06
 Reference value :  7.81662e-06
 Reference value :  8.00001e-06
 Reference value :  8.00010e-06
 Reference value :  8.00016e-06
 Reference value :  8.00035e-06
 Reference value :  8.00093e-06
 Reference value :  8.00196e-06
 Reference value :  8.00297e-06
 Reference value :  8.00410e-06
 Reference value :  8.00515e-06
 Reference value :  8.00731e-06
 Reference value :  8.00967e-06
 Reference value :  8.01138e-06
 Reference value :  8.01426e-06
 Reference value :  8.01957e-06
 Reference value :  8.02773e-06
 Reference value :  8.03962e-06
 Reference value :  8.05278e-06
 Reference value :  8.06591e-06
 Reference value :  8.08433e-06
 Reference value :  8.16350e-06
 Reference value :  8.25013e-06
 Reference value :  8.25021e-06
 Reference value :  8.25032e-06
 Reference value :  8.25080e-06
 Reference value :  8.25161e-06
 Reference value :  8.25257e-06
 Reference value :  8.25406e-06
 Reference value :  8.25597e-06
 Reference value :  8.25856e-06
 Reference value :  8.26808e-06
 Reference value :  8.40959e-06
 Reference value :  8.50003e-06
 Reference value :  8.50011e-06
 Reference value :  8.50035e-06
 Reference value :  8.50143e-06
 Reference value :  8.50244e-06
 Reference value :  8.50357e-06
 Reference value :  8.50489e-06
 Reference value :  8.50714e-06
 Reference value :  8.51378e-06
 Reference value :  8.52615e-06
 Reference value :  8.53073e-06
 Reference value :  8.53818e-06
 Reference value :  8.54405e-06
 Reference value :  8.55674e-06
 Reference value :  8.61498e-06
 Reference value :  8.75011e-06
 Reference value :  8.75020e-06
 Reference value :  8.75032e-06
 Reference value :  8.75083e-06
 Reference value :  8.75170e-06
 Reference value :  8.75271e-06
 Reference value :  8.75398e-06
 Reference value :  8.75593e-06
 Reference value :  8.76003e-06
 Reference value :  8.77567e-06
 Reference value :  8.89051e-06
 Reference value :  9.00000e-06
 Reference value :  9.00003e-06
 Reference value :  9.00010e-06
 Reference value :  9.00016e-06
 Reference value :  9.00052e-06
 Reference value :  9.00131e-06
 Reference value :  9.00231e-06
 Reference value :  9.00332e-06
 Reference value :  9.00454e-06
 Reference value :  9.00757e-06
 Reference value :  9.01108e-06
 Reference value :  9.01366e-06
 Reference value :  9.01893e-06
 Reference value :  9.03409e-06
 Reference value :  9.10675e-06
 Reference value :  9.25013e-06
 Reference value :  9.25022e-06
 Reference value :  9.25060e-06
 Reference value :  9.25126e-06
 Reference value :  9.25214e-06
 Reference value :  9.25349e-06
 Reference value :  9.25460e-06
 Reference value :  9.25598e-06
 Reference value :  9.26019e-06
 Reference value :  9.27729e-06
 Reference value :  9.32343e-06
 Reference value :  9.50001e-06
 Reference value :  9.50007e-06
 Reference value :  9.50011e-06
 Reference value :  9.50022e-06
 Reference value :  9.50052e-06
 Reference value :  9.50131e-06
 Reference value :  9.50231e-06
 Reference value :  9.50332e-06
 Reference value :  9.50448e-06
 Reference value :  9.50585e-06
 Reference value :  9.50748e-06
 Reference value :  9.51005e-06
 Reference value :  9.51274e-06
 Reference value :  9.51373e-06
 Reference value :  9.51580e-06
 Reference value :  9.51776e-06
 Reference value :  9.52209e-06
 Reference value :  9.55145e-06
 Reference value :  9.70454e-06
 Reference value :  9.75017e-06
 Reference value :  9.75026e-06
 Reference value :  9.75060e-06
 Reference value :  9.75127e-06
 Reference value :  9.75216e-06
 Reference value :  9.75404e-06
 Reference value :  9.75527e-06
 Reference value :  9.75679e-06
 Reference value :  9.76322e-06
 Reference value :  9.79466e-06
 Reference value :  9.89037e-06
 Reference value :  1.00000e-05
 Reference value :  1.00000e-05
 Reference value :  1.00001e-05
 Reference value :  1.00001e-05
 Reference value :  1.00002e-05
 Reference value :  1.00005e-05
 Reference value :  1.00013e-05
 Reference value :  1.00028e-05
 Reference value :  1.00039e-05
 Reference value :  1.00055e-05
 Reference value :  1.00071e-05
 Reference value :  1.00089e-05
 Reference value :  1.00109e-05
 Reference value :  1.00179e-05
 Reference value :  1.00518e-05
 Reference value :  1.02501e-05
 Reference value :  1.02502e-05
 Reference value :  1.02502e-05
 Reference value :  1.02504e-05
 Reference value :  1.02513e-05
 Reference value :  1.02522e-05
 Reference value :  1.02535e-05
 Reference value :  1.02540e-05
 Reference value :  1.02553e-05
 Reference value :  1.02560e-05
 Reference value :  1.02580e-05
 Reference value :  1.02677e-05
 Reference value :  1.03841e-05
 Reference value :  1.05000e-05
 Reference value :  1.05001e-05
 Reference value :  1.05002e-05
 Reference value :  1.05009e-05
 Reference value :  1.05018e-05
 Reference value :  1.05028e-05
 Reference value :  1.05039e-05
 Reference value :  1.05052e-05
 Reference value :  1.05065e-05
 Reference value :  1.05101e-05
 Reference value :  1.05128e-05
 Reference value :  1.05138e-05
 Reference value :  1.05158e-05
 Reference value :  1.05168e-05
 Reference value :  1.05191e-05
 Reference value :  1.05224e-05
 Reference value :  1.05296e-05
 Reference value :  1.05396e-05
 Reference value :  1.05444e-05
 Reference value :  1.05479e-05
 Reference value :  1.05562e-05
 Reference value :  1.05663e-05
 Reference value :  1.05862e-05
 Reference value :  1.06507e-05
 Reference value :  1.07501e-05
 Reference value :  1.07502e-05
 Reference value :  1.07502e-05
 Reference value :  1.07503e-05
 Reference value :  1.07506e-05
 Reference value :  1.07513e-05
 Reference value :  1.07522e-05
 Reference value :  1.07535e-05
 Reference value :  1.07540e-05
 Reference value :  1.07551e-05
 Reference value :  1.07566e-05
 Reference value :  1.07627e-05
 Reference value :  1.07743e-05
 Reference value :  1.10000e-05
 Reference value :  1.10001e-05
 Reference value :  1.10002e-05
 Reference value :  1.10005e-05
 Reference value :  1.10017e-05
 Reference value :  1.10027e-05
 Reference value :  1.10032e-05
 Reference value :  1.10038e-05
 Reference value :  1.10044e-05
 Reference value :  1.10052e-05
 Reference value :  1.10067e-05
 Reference value :  1.10083e-05
 Reference value :  1.10103e-05
 Reference value :  1.10179e-05
 Reference value :  1.10743e-05
 Reference value :  1.12501e-05
 Reference value :  1.12501e-05
 Reference value :  1.12502e-05
 Reference value :  1.12503e-05
 Reference value :  1.12506e-05
 Reference value :  1.12517e-05
 Reference value :  1.12527e-05
 Reference value :  1.12540e-05
 Reference value :  1.12560e-05
 Reference value :  1.12577e-05
 Reference value :  1.12598e-05
 Reference value :  1.12668e-05
 Reference value :  1.12947e-05
 Reference value :  1.14144e-05
 Reference value :  1.15000e-05
 Reference value :  1.15001e-05
 Reference value :  1.15002e-05
 Reference value :  1.15009e-05
 Reference value :  1.15023e-05
 Reference value :  1.15033e-05
 Reference value :  1.15046e-05
 Reference value :  1.15058e-05
 Reference value :  1.15083e-05
 Reference value :  1.15105e-05
 Reference value :  1.15115e-05
 Reference value :  1.15135e-05
 Reference value :  1.15153e-05
 Reference value :  1.15173e-05
 Reference value :  1.15184e-05
 Reference value :  1.15215e-05
 Reference value :  1.15465e-05
 Reference value :  1.15681e-05
 Reference value :  1.15853e-05
 Reference value :  1.15980e-05
 Reference value :  1.16305e-05
 Reference value :  1.16812e-05
 Reference value :  1.17501e-05
 Reference value :  1.17502e-05
 Reference value :  1.17502e-05
 Reference value :  1.17503e-05
 Reference value :  1.17508e-05
 Reference value :  1.17517e-05
 Reference value :  1.17527e-05
 Reference value :  1.17540e-05
 Reference value :  1.17560e-05
 Reference value :  1.17583e-05
 Reference value :  1.17675e-05
 Reference value :  1.18180e-05
 Reference value :  1.18562e-05
 Reference value :  1.18858e-05
 Reference value :  1.19307e-05
 Reference value :  1.20000e-05
 Reference value :  1.20001e-05
 Reference value :  1.20002e-05
 Reference value :  1.20005e-05
 Reference value :  1.20013e-05
 Reference value :  1.20022e-05
 Reference value :  1.20032e-05
 Reference value :  1.20044e-05
 Reference value :  1.20060e-05
 Reference value :  1.20067e-05
 Reference value :  1.20083e-05
 Reference value :  1.20103e-05
 Reference value :  1.20173e-05
 Reference value :  1.21188e-05
 Reference value :  1.22501e-05
 Reference value :  1.22502e-05
 Reference value :  1.22503e-05
 Reference value :  1.22506e-05
 Reference value :  1.22513e-05
 Reference value :  1.22522e-05
 Reference value :  1.22535e-05
 Reference value :  1.22540e-05
 Reference value :  1.22552e-05
 Reference value :  1.22560e-05
 Reference value :  1.22568e-05
 Reference value :  1.22587e-05
 Reference value :  1.22617e-05
 Reference value :  1.22724e-05
 Reference value :  1.23180e-05
 Reference value :  1.25000e-05
 Reference value :  1.25001e-05
 Reference value :  1.25002e-05
 Reference value :  1.25005e-05
 Reference value :  1.25013e-05
 Reference value :  1.25023e-05
 Reference value :  1.25033e-05
 Reference value :  1.25046e-05
 Reference value :  1.25058e-05
 Reference value :  1.25084e-05
 Reference value :  1.25105e-05
 Reference value :  1.25126e-05
 Reference value :  1.25143e-05
 Reference value :  1.25163e-05
 Reference value :  1.25184e-05
 Reference value :  1.25211e-05
 Reference value :  1.25252e-05
 Reference value :  1.25279e-05
 Reference value :  1.25316e-05
 Reference value :  1.25355e-05
 Reference value :  1.25559e-05
 Reference value :  1.26061e-05
 Reference value :  1.27501e-05
 Reference value :  1.27502e-05
 Reference value :  1.27502e-05
 Reference value :  1.27504e-05
 Reference value :  1.27510e-05
 Reference value :  1.27519e-05
 Reference value :  1.27531e-05
 Reference value :  1.27544e-05
 Reference value :  1.27565e-05
 Reference value :  1.27649e-05
 Reference value :  1.28630e-05
 Reference value :  1.30000e-05
 Reference value :  1.30001e-05
 Reference value :  1.30002e-05
 Reference value :  1.30009e-05
 Reference value :  1.30020e-05
 Reference value :  1.30030e-05
 Reference value :  1.30035e-05
 Reference value :  1.30049e-05
 Reference value :  1.30064e-05
 Reference value :  1.30083e-05
 Reference value :  1.30102e-05
 Reference value :  1.30124e-05
 Reference value :  1.30426e-05
 Reference value :  1.32501e-05
 Reference value :  1.32502e-05
 Reference value :  1.32503e-05
 Reference value :  1.32505e-05
 Reference value :  1.32515e-05
 Reference value :  1.32524e-05
 Reference value :  1.32538e-05
 Reference value :  1.32550e-05
 Reference value :  1.32564e-05
 Reference value :  1.32645e-05
 Reference value :  1.33502e-05
 Reference value :  1.35000e-05
 Reference value :  1.35001e-05
 Reference value :  1.35002e-05
 Reference value :  1.35006e-05
 Reference value :  1.35015e-05
 Reference value :  1.35024e-05
 Reference value :  1.35035e-05
 Reference value :  1.35047e-05
 Reference value :  1.35059e-05
 Reference value :  1.35087e-05
 Reference value :  1.35119e-05
 Reference value :  1.35143e-05
 Reference value :  1.35164e-05
 Reference value :  1.35187e-05
 Reference value :  1.35219e-05
 Reference value :  1.35325e-05
 Reference value :  1.35436e-05
 Reference value :  1.35477e-05
 Reference value :  1.35567e-05
 Reference value :  1.35683e-05
 Reference value :  1.35927e-05
 Reference value :  1.36211e-05
 Reference value :  1.36403e-05
 Reference value :  1.36542e-05
 Reference value :  1.36664e-05
 Reference value :  1.36864e-05
 Reference value :  1.37501e-05
 Reference value :  1.37502e-05
 Reference value :  1.37502e-05
 Reference value :  1.37503e-05
 Reference value :  1.37507e-05
 Reference value :  1.37514e-05
 Reference value :  1.37524e-05
 Reference value :  1.37543e-05
 Reference value :  1.37556e-05
 Reference value :  1.37572e-05
 Reference value :  1.37643e-05
 Reference value :  1.38024e-05
 Reference value :  1.40000e-05
 Reference value :  1.40001e-05
 Reference value :  1.40002e-05
 Reference value :  1.40006e-05
 Reference value :  1.40020e-05
 Reference value :  1.40030e-05
 Reference value :  1.40035e-05
 Reference value :  1.40049e-05
 Reference value :  1.40064e-05
 Reference value :  1.40083e-05
 Reference value :  1.40113e-05
 Reference value :  1.40268e-05
 Reference value :  1.42487e-05
 Reference value :  1.42501e-05
 Reference value :  1.42502e-05
 Reference value :  1.42503e-05
 Reference value :  1.42505e-05
 Reference value :  1.42515e-05
 Reference value :  1.42524e-05
 Reference value :  1.42538e-05
 Reference value :  1.42544e-05
 Reference value :  1.42557e-05
 Reference value :  1.42573e-05
 Reference value :  1.42707e-05
 Reference value :  1.43511e-05
 Reference value :  1.45000e-05
 Reference value :  1.45001e-05
 Reference value :  1.45002e-05
 Reference value :  1.45009e-05
 Reference value :  1.45024e-05
 Reference value :  1.45035e-05
 Reference value :  1.45047e-05
 Reference value :  1.45059e-05
 Reference value :  1.45087e-05
 Reference value :  1.45119e-05
 Reference value :  1.45143e-05
 Reference value :  1.45164e-05
 Reference value :  1.45187e-05
 Reference value :  1.45239e-05
 Reference value :  1.45371e-05
 Reference value :  1.45512e-05
 Reference value :  1.45623e-05
 Reference value :  1.45989e-05
 Reference value :  1.47256e-05
 Reference value :  1.47501e-05
 Reference value :  1.47502e-05
 Reference value :  1.47503e-05
 Reference value :  1.47503e-05
 Reference value :  1.47505e-05
 Reference value :  1.47514e-05
 Reference value :  1.47524e-05
 Reference value :  1.47538e-05
 Reference value :  1.47543e-05
 Reference value :  1.47556e-05
 Reference value :  1.47573e-05
 Reference value :  1.47708e-05
 Reference value :  1.48454e-05
 Reference value :  1.48850e-05
 Reference value :  1.49269e-05
 Reference value :  1.49551e-05
 Reference value :  1.50000e-05
 Reference value :  1.50000e-05
 Reference value :  1.50001e-05
 Reference value :  1.50002e-05
 Reference value :  1.50006e-05
 Reference value :  1.50015e-05
 Reference value :  1.50024e-05
 Reference value :  1.50035e-05
 Reference value :  1.50049e-05
 Reference value :  1.50057e-05
 Reference value :  1.50064e-05
 Reference value :  1.50083e-05
 Reference value :  1.50102e-05
 Reference value :  1.50113e-05
 Reference value :  1.50189e-05
 Reference value :  1.50417e-05
 Reference value :  1.52400e-05
 Reference value :  1.52501e-05
 Reference value :  1.52502e-05
 Reference value :  1.52503e-05
 Reference value :  1.52504e-05
 Reference value :  1.52507e-05
 Reference value :  1.52515e-05
 Reference value :  1.52524e-05
 Reference value :  1.52538e-05
 Reference value :  1.52544e-05
 Reference value :  1.52557e-05
 Reference value :  1.52564e-05
 Reference value :  1.52612e-05
 Reference value :  1.52707e-05
 Reference value :  1.53057e-05
 Reference value :  1.54417e-05
 Reference value :  1.55011e-05
 Reference value :  1.55032e-05
 Reference value :  1.55043e-05
 Reference value :  1.55063e-05
 Reference value :  1.55080e-05
 Reference value :  1.55106e-05
 Reference value :  1.55134e-05
 Reference value :  1.55145e-05
 Reference value :  1.55166e-05
 Reference value :  1.55177e-05
 Reference value :  1.55200e-05
 Reference value :  1.55235e-05
 Reference value :  1.55294e-05
 Reference value :  1.55331e-05
 Reference value :  1.55406e-05
 Reference value :  1.55550e-05
 Reference value :  1.55674e-05
 Reference value :  1.56099e-05
 Reference value :  1.57501e-05
 Reference value :  1.57501e-05
 Reference value :  1.57502e-05
 Reference value :  1.57503e-05
 Reference value :  1.57505e-05
 Reference value :  1.57509e-05
 Reference value :  1.57515e-05
 Reference value :  1.57524e-05
 Reference value :  1.57537e-05
 Reference value :  1.57542e-05
 Reference value :  1.57554e-05
 Reference value :  1.57561e-05
 Reference value :  1.57584e-05
 Reference value :  1.57634e-05
 Reference value :  1.57775e-05
 Reference value :  1.58734e-05
 Reference value :  1.60000e-05
 Reference value :  1.60001e-05
 Reference value :  1.60001e-05
 Reference value :  1.60003e-05
 Reference value :  1.60015e-05
 Reference value :  1.60024e-05
 Reference value :  1.60035e-05
 Reference value :  1.60047e-05
 Reference value :  1.60065e-05
 Reference value :  1.60084e-05
 Reference value :  1.60103e-05
 Reference value :  1.60126e-05
 Reference value :  1.60255e-05
 Reference value :  1.60588e-05
 Reference value :  1.62501e-05
 Reference value :  1.62501e-05
 Reference value :  1.62502e-05
 Reference value :  1.62503e-05
 Reference value :  1.62505e-05
 Reference value :  1.62515e-05
 Reference value :  1.62524e-05
 Reference value :  1.62538e-05
 Reference value :  1.62550e-05
 Reference value :  1.62564e-05
 Reference value :  1.62581e-05
 Reference value :  1.62603e-05
 Reference value :  1.62672e-05
 Reference value :  1.63163e-05
 Reference value :  1.65000e-05
 Reference value :  1.65001e-05
 Reference value :  1.65001e-05
 Reference value :  1.65003e-05
 Reference value :  1.65009e-05
 Reference value :  1.65020e-05
 Reference value :  1.65030e-05
 Reference value :  1.65041e-05
 Reference value :  1.65046e-05
 Reference value :  1.65058e-05
 Reference value :  1.65073e-05
 Reference value :  1.65090e-05
 Reference value :  1.65105e-05
 Reference value :  1.65123e-05
 Reference value :  1.65168e-05
 Reference value :  1.65225e-05
 Reference value :  1.65396e-05
 Reference value :  1.65528e-05
 Reference value :  1.65742e-05
 Reference value :  1.66635e-05
 Reference value :  1.67501e-05
 Reference value :  1.67502e-05
 Reference value :  1.67503e-05
 Reference value :  1.67506e-05
 Reference value :  1.67516e-05
 Reference value :  1.67533e-05
 Reference value :  1.67550e-05
 Reference value :  1.67569e-05
 Reference value :  1.67602e-05
 Reference value :  1.67778e-05
 Reference value :  1.69096e-05
 Reference value :  1.70015e-05
 Reference value :  1.70046e-05
 Reference value :  1.70061e-05
 Reference value :  1.70093e-05
 Reference value :  1.70134e-05
 Reference value :  1.70206e-05
 Reference value :  1.70255e-05
 Reference value :  1.70289e-05
 Reference value :  1.70316e-05
 Reference value :  1.70340e-05
 Reference value :  1.70358e-05
 Reference value :  1.70390e-05
 Reference value :  1.70453e-05
 Reference value :  1.70521e-05
 Reference value :  1.70723e-05
 Reference value :  1.71331e-05
 Reference value :  1.72501e-05
 Reference value :  1.72502e-05
 Reference value :  1.72502e-05
 Reference value :  1.72504e-05
 Reference value :  1.72513e-05
 Reference value :  1.72527e-05
 Reference value :  1.72540e-05
 Reference value :  1.72559e-05
 Reference value :  1.72601e-05
 Reference value :  1.72930e-05
 Reference value :  1.75000e-05
 Reference value :  1.75001e-05
 Reference value :  1.75001e-05
 Reference value :  1.75002e-05
 Reference value :  1.75005e-05
 Reference value :  1.75009e-05
 Reference value :  1.75018e-05
 Reference value :  1.75028e-05
 Reference value :  1.75033e-05
 Reference value :  1.75045e-05
 Reference value :  1.75064e-05
 Reference value :  1.75076e-05
 Reference value :  1.75099e-05
 Reference value :  1.75124e-05
 Reference value :  1.75137e-05
 Reference value :  1.75191e-05
 Reference value :  1.75346e-05
 Reference value :  1.76106e-05
 Reference value :  1.77501e-05
 Reference value :  1.77502e-05
 Reference value :  1.77503e-05
 Reference value :  1.77506e-05
 Reference value :  1.77517e-05
 Reference value :  1.77535e-05
 Reference value :  1.77546e-05
 Reference value :  1.77560e-05
 Reference value :  1.77580e-05
 Reference value :  1.77773e-05
 Reference value :  1.80000e-05
 Reference value :  1.80021e-05
 Reference value :  1.80084e-05
 Reference value :  1.80121e-05
 Reference value :  1.80147e-05
 Reference value :  1.80173e-05
 Reference value :  1.80224e-05
 Reference value :  1.80388e-05
 Reference value :  1.82129e-05
 Reference value :  1.82501e-05
 Reference value :  1.82502e-05
 Reference value :  1.82503e-05
 Reference value :  1.82508e-05
 Reference value :  1.82522e-05
 Reference value :  1.82532e-05
 Reference value :  1.82542e-05
 Reference value :  1.82552e-05
 Reference value :  1.82567e-05
 Reference value :  1.82673e-05
 Reference value :  1.83955e-05
 Reference value :  1.85000e-05
 Reference value :  1.85001e-05
 Reference value :  1.85003e-05
 Reference value :  1.85013e-05
 Reference value :  1.85028e-05
 Reference value :  1.85039e-05
 Reference value :  1.85055e-05
 Reference value :  1.85071e-05
 Reference value :  1.85088e-05
 Reference value :  1.85109e-05
 Reference value :  1.85240e-05
 Reference value :  1.86579e-05
 Reference value :  1.87501e-05
 Reference value :  1.87502e-05
 Reference value :  1.87503e-05
 Reference value :  1.87508e-05
 Reference value :  1.87517e-05
 Reference value :  1.87527e-05
 Reference value :  1.87540e-05
 Reference value :  1.87553e-05
 Reference value :  1.87580e-05
 Reference value :  1.87769e-05
 Reference value :  1.88839e-05
 Reference value :  1.90000e-05
 Reference value :  1.90001e-05
 Reference value :  1.90002e-05
 Reference value :  1.90009e-05
 Reference value :  1.90023e-05
 Reference value :  1.90033e-05
 Reference value :  1.90045e-05
 Reference value :  1.90059e-05
 Reference value :  1.90085e-05
 Reference value :  1.90101e-05
 Reference value :  1.90127e-05
 Reference value :  1.90137e-05
 Reference value :  1.90147e-05
 Reference value :  1.90168e-05
 Reference value :  1.90191e-05
 Reference value :  1.90253e-05
 Reference value :  1.90396e-05
 Reference value :  1.90480e-05
 Reference value :  1.90564e-05
 Reference value :  1.90667e-05
 Reference value :  1.90872e-05
 Reference value :  1.91536e-05
 Reference value :  1.92501e-05
 Reference value :  1.92502e-05
 Reference value :  1.92502e-05
 Reference value :  1.92504e-05
 Reference value :  1.92513e-05
 Reference value :  1.92517e-05
 Reference value :  1.92527e-05
 Reference value :  1.92535e-05
 Reference value :  1.92540e-05
 Reference value :  1.92545e-05
 Reference value :  1.92551e-05
 Reference value :  1.92558e-05
 Reference value :  1.92598e-05
 Reference value :  1.92743e-05
 Reference value :  1.93826e-05
 Reference value :  1.95021e-05
 Reference value :  1.95085e-05
 Reference value :  1.95132e-05
 Reference value :  1.95186e-05
 Reference value :  1.95278e-05
 Reference value :  1.95639e-05
 Reference value :  1.96900e-05
 Reference value :  1.97501e-05
 Reference value :  1.97502e-05
 Reference value :  1.97503e-05
 Reference value :  1.97506e-05
 Reference value :  1.97517e-05
 Reference value :  1.97527e-05
 Reference value :  1.97536e-05
 Reference value :  1.97547e-05
 Reference value :  1.97560e-05
 Reference value :  1.97586e-05
 Reference value :  1.97633e-05
 Reference value :  1.97805e-05
 Reference value :  1.99314e-05
 Reference value :  2.00000e-05
 Reference value :  2.00001e-05
 Reference value :  2.00002e-05
 Reference value :  2.00009e-05
 Reference value :  2.00023e-05
 Reference value :  2.00033e-05
 Reference value :  2.00046e-05
 Reference value :  2.00058e-05
 Reference value :  2.00073e-05
 Reference value :  2.00105e-05
 Reference value :  2.00116e-05
 Reference value :  2.00135e-05
 Reference value :  2.00153e-05
 Reference value :  2.00173e-05
 Reference value :  2.00196e-05
 Reference value :  2.00358e-05
 Reference value :  2.00578e-05
 Reference value :  2.00691e-05
 Reference value :  2.00865e-05
 Reference value :  2.01000e-05
 Reference value :  2.01374e-05
 Reference value :  2.02049e-05
 Reference value :  2.02501e-05
 Reference value :  2.02502e-05
 Reference value :  2.02502e-05
 Reference value :  2.02504e-05
 Reference value :  2.02508e-05
 Reference value :  2.02517e-05
 Reference value :  2.02535e-05
 Reference value :  2.02540e-05
 Reference value :  2.02553e-05
 Reference value :  2.02560e-05
 Reference value :  2.02583e-05
 Reference value :  2.02677e-05
 Reference value :  2.03182e-05
 Reference value :  2.03581e-05
 Reference value :  2.03736e-05
 Reference value :  2.03892e-05
 Reference value :  2.04166e-05
 Reference value :  2.05000e-05
 Reference value :  2.05003e-05
 Reference value :  2.05012e-05
 Reference value :  2.05018e-05
 Reference value :  2.05029e-05
 Reference value :  2.05042e-05
 Reference value :  2.05059e-05
 Reference value :  2.05066e-05
 Reference value :  2.05083e-05
 Reference value :  2.05104e-05
 Reference value :  2.05225e-05
 Reference value :  2.05842e-05
 Reference value :  2.07501e-05
 Reference value :  2.07502e-05
 Reference value :  2.07503e-05
 Reference value :  2.07504e-05
 Reference value :  2.07508e-05
 Reference value :  2.07517e-05
 Reference value :  2.07527e-05
 Reference value :  2.07534e-05
 Reference value :  2.07539e-05
 Reference value :  2.07552e-05
 Reference value :  2.07558e-05
 Reference value :  2.07566e-05
 Reference value :  2.07585e-05
 Reference value :  2.07611e-05
 Reference value :  2.07628e-05
 Reference value :  2.07805e-05
 Reference value :  2.08829e-05
 Reference value :  2.10000e-05
 Reference value :  2.10001e-05
 Reference value :  2.10001e-05
 Reference value :  2.10002e-05
 Reference value :  2.10003e-05
 Reference value :  2.10009e-05
 Reference value :  2.10018e-05
 Reference value :  2.10028e-05
 Reference value :  2.10033e-05
 Reference value :  2.10046e-05
 Reference value :  2.10058e-05
 Reference value :  2.10073e-05
 Reference value :  2.10094e-05
 Reference value :  2.10105e-05
 Reference value :  2.10115e-05
 Reference value :  2.10126e-05
 Reference value :  2.10135e-05
 Reference value :  2.10153e-05
 Reference value :  2.10173e-05
 Reference value :  2.10184e-05
 Reference value :  2.10215e-05
 Reference value :  2.10234e-05
 Reference value :  2.10256e-05
 Reference value :  2.10286e-05
 Reference value :  2.10307e-05
 Reference value :  2.10350e-05
 Reference value :  2.10474e-05
 Reference value :  2.10687e-05
 Reference value :  2.11110e-05
 Reference value :  2.12267e-05
 Reference value :  2.12501e-05
 Reference value :  2.12502e-05
 Reference value :  2.12502e-05
 Reference value :  2.12503e-05
 Reference value :  2.12505e-05
 Reference value :  2.12515e-05
 Reference value :  2.12524e-05
 Reference value :  2.12538e-05
 Reference value :  2.12550e-05
 Reference value :  2.12565e-05
 Reference value :  2.12614e-05
 Reference value :  2.12854e-05
 Reference value :  2.14752e-05
 Reference value :  2.15000e-05
 Reference value :  2.15001e-05
 Reference value :  2.15002e-05
 Reference value :  2.15003e-05
 Reference value :  2.15009e-05
 Reference value :  2.15020e-05
 Reference value :  2.15024e-05
 Reference value :  2.15035e-05
 Reference value :  2.15049e-05
 Reference value :  2.15064e-05
 Reference value :  2.15083e-05
 Reference value :  2.15102e-05
 Reference value :  2.15125e-05
 Reference value :  2.15426e-05
 Reference value :  2.17501e-05
 Reference value :  2.17502e-05
 Reference value :  2.17503e-05
 Reference value :  2.17505e-05
 Reference value :  2.17515e-05
 Reference value :  2.17524e-05
 Reference value :  2.17538e-05
 Reference value :  2.17550e-05
 Reference value :  2.17564e-05
 Reference value :  2.17612e-05
 Reference value :  2.18053e-05
 Reference value :  2.20000e-05
 Reference value :  2.20011e-05
 Reference value :  2.20044e-05
 Reference value :  2.20055e-05
 Reference value :  2.20064e-05
 Reference value :  2.20082e-05
 Reference value :  2.20107e-05
 Reference value :  2.20120e-05
 Reference value :  2.20143e-05
 Reference value :  2.20164e-05
 Reference value :  2.20185e-05
 Reference value :  2.20212e-05
 Reference value :  2.20257e-05
 Reference value :  2.20358e-05
 Reference value :  2.20414e-05
 Reference value :  2.20462e-05
 Reference value :  2.20567e-05
 Reference value :  2.20745e-05
 Reference value :  2.21060e-05
 Reference value :  2.21405e-05
 Reference value :  2.21524e-05
 Reference value :  2.21742e-05
 Reference value :  2.22212e-05
 Reference value :  2.22501e-05
 Reference value :  2.22502e-05
 Reference value :  2.22503e-05
 Reference value :  2.22504e-05
 Reference value :  2.22507e-05
 Reference value :  2.22509e-05
 Reference value :  2.22515e-05
 Reference value :  2.22524e-05
 Reference value :  2.22538e-05
 Reference value :  2.22543e-05
 Reference value :  2.22555e-05
 Reference value :  2.22571e-05
 Reference value :  2.22608e-05
 Reference value :  2.22795e-05
 Reference value :  2.23779e-05
 Reference value :  2.25000e-05
 Reference value :  2.25001e-05
 Reference value :  2.25001e-05
 Reference value :  2.25002e-05
 Reference value :  2.25006e-05
 Reference value :  2.25015e-05
 Reference value :  2.25024e-05
 Reference value :  2.25035e-05
 Reference value :  2.25049e-05
 Reference value :  2.25064e-05
 Reference value :  2.25083e-05
 Reference value :  2.25102e-05
 Reference value :  2.25113e-05
 Reference value :  2.25190e-05
 Reference value :  2.25423e-05
 Reference value :  2.26300e-05
 Reference value :  2.27501e-05
 Reference value :  2.27502e-05
 Reference value :  2.27502e-05
 Reference value :  2.27503e-05
 Reference value :  2.27505e-05
 Reference value :  2.27510e-05
 Reference value :  2.27519e-05
 Reference value :  2.27538e-05
 Reference value :  2.27550e-05
 Reference value :  2.27564e-05
 Reference value :  2.27646e-05
 Reference value :  2.28510e-05
 Reference value :  2.30011e-05
 Reference value :  2.30043e-05
 Reference value :  2.30063e-05
 Reference value :  2.30080e-05
 Reference value :  2.30106e-05
 Reference value :  2.30134e-05
 Reference value :  2.30145e-05
 Reference value :  2.30166e-05
 Reference value :  2.30177e-05
 Reference value :  2.30200e-05
 Reference value :  2.30236e-05
 Reference value :  2.30310e-05
 Reference value :  2.30418e-05
 Reference value :  2.30501e-05
 Reference value :  2.30630e-05
 Reference value :  2.30844e-05
 Reference value :  2.32008e-05
 Reference value :  2.32501e-05
 Reference value :  2.32502e-05
 Reference value :  2.32502e-05
 Reference value :  2.32504e-05
 Reference value :  2.32507e-05
 Reference value :  2.32511e-05
 Reference value :  2.32515e-05
 Reference value :  2.32524e-05
 Reference value :  2.32537e-05
 Reference value :  2.32542e-05
 Reference value :  2.32554e-05
 Reference value :  2.32569e-05
 Reference value :  2.32604e-05
 Reference value :  2.32681e-05
 Reference value :  2.33219e-05
 Reference value :  2.34249e-05
 Reference value :  2.34605e-05
 Reference value :  2.35000e-05
 Reference value :  2.35001e-05
 Reference value :  2.35002e-05
 Reference value :  2.35006e-05
 Reference value :  2.35015e-05
 Reference value :  2.35024e-05
 Reference value :  2.35035e-05
 Reference value :  2.35049e-05
 Reference value :  2.35064e-05
 Reference value :  2.35083e-05
 Reference value :  2.35102e-05
 Reference value :  2.35125e-05
 Reference value :  2.35266e-05
 Reference value :  2.36264e-05
 Reference value :  2.37501e-05
 Reference value :  2.37502e-05
 Reference value :  2.37503e-05
 Reference value :  2.37505e-05
 Reference value :  2.37515e-05
 Reference value :  2.37524e-05
 Reference value :  2.37538e-05
 Reference value :  2.37550e-05
 Reference value :  2.37564e-05
 Reference value :  2.37612e-05
 Reference value :  2.37830e-05
 Reference value :  2.39418e-05
 Reference value :  2.40000e-05
 Reference value :  2.40001e-05
 Reference value :  2.40001e-05
 Reference value :  2.40002e-05
 Reference value :  2.40006e-05
 Reference value :  2.40009e-05
 Reference value :  2.40020e-05
 Reference value :  2.40024e-05
 Reference value :  2.40035e-05
 Reference value :  2.40047e-05
 Reference value :  2.40059e-05
 Reference value :  2.40087e-05
 Reference value :  2.40119e-05
 Reference value :  2.40144e-05
 Reference value :  2.40163e-05
 Reference value :  2.40200e-05
 Reference value :  2.40274e-05
 Reference value :  2.40402e-05
 Reference value :  2.40558e-05
 Reference value :  2.40917e-05
 Reference value :  2.41815e-05
 Reference value :  2.42501e-05
 Reference value :  2.42502e-05
 Reference value :  2.42503e-05
 Reference value :  2.42505e-05
 Reference value :  2.42514e-05
 Reference value :  2.42524e-05
 Reference value :  2.42538e-05
 Reference value :  2.42550e-05
 Reference value :  2.42564e-05
 Reference value :  2.42612e-05
 Reference value :  2.42711e-05
 Reference value :  2.43465e-05
 Reference value :  2.45000e-05
 Reference value :  2.45000e-05
 Reference value :  2.45001e-05
 Reference value :  2.45001e-05
 Reference value :  2.45002e-05
 Reference value :  2.45006e-05
 Reference value :  2.45015e-05
 Reference value :  2.45024e-05
 Reference value :  2.45035e-05
 Reference value :  2.45047e-05
 Reference value :  2.45065e-05
 Reference value :  2.45084e-05
 Reference value :  2.45103e-05
 Reference value :  2.45114e-05
 Reference value :  2.45187e-05
 Reference value :  2.46010e-05
 Reference value :  2.47501e-05
 Reference value :  2.47502e-05
 Reference value :  2.47503e-05
 Reference value :  2.47505e-05
 Reference value :  2.47515e-05
 Reference value :  2.47531e-05
 Reference value :  2.47544e-05
 Reference value :  2.47557e-05
 Reference value :  2.47564e-05
 Reference value :  2.47590e-05
 Reference value :  2.47641e-05
 Reference value :  2.47810e-05
 Reference value :  2.48516e-05
 Reference value :  2.50000e-05
 Reference value :  2.50001e-05
 Reference value :  2.50001e-05
 Reference value :  2.50003e-05
 Reference value :  2.50009e-05
 Reference value :  2.50024e-05
 Reference value :  2.50035e-05
 Reference value :  2.50046e-05
 Reference value :  2.50058e-05
 Reference value :  2.50073e-05
 Reference value :  2.50090e-05
 Reference value :  2.50097e-05
 Reference value :  2.50114e-05
 Reference value :  2.50168e-05
 Reference value :  2.50225e-05
 Reference value :  2.50396e-05
 Reference value :  2.50591e-05
 Reference value :  2.50742e-05
 Reference value :  2.51233e-05
 Reference value :  2.52501e-05
 Reference value :  2.52501e-05
 Reference value :  2.52502e-05
 Reference value :  2.52503e-05
 Reference value :  2.52506e-05
 Reference value :  2.52516e-05
 Reference value :  2.52526e-05
 Reference value :  2.52533e-05
 Reference value :  2.52550e-05
 Reference value :  2.52560e-05
 Reference value :  2.52569e-05
 Reference value :  2.52586e-05
 Reference value :  2.52681e-05
 Reference value :  2.53347e-05
 Reference value :  2.55015e-05
 Reference value :  2.55046e-05
 Reference value :  2.55061e-05
 Reference value :  2.55093e-05
 Reference value :  2.55134e-05
 Reference value :  2.55206e-05
 Reference value :  2.55255e-05
 Reference value :  2.55289e-05
 Reference value :  2.55316e-05
 Reference value :  2.55340e-05
 Reference value :  2.55358e-05
 Reference value :  2.55390e-05
 Reference value :  2.55453e-05
 Reference value :  2.55560e-05
 Reference value :  2.55874e-05
 Reference value :  2.56749e-05
 Reference value :  2.57501e-05
 Reference value :  2.57502e-05
 Reference value :  2.57502e-05
 Reference value :  2.57504e-05
 Reference value :  2.57508e-05
 Reference value :  2.57517e-05
 Reference value :  2.57527e-05
 Reference value :  2.57540e-05
 Reference value :  2.57559e-05
 Reference value :  2.57630e-05
 Reference value :  2.58258e-05
 Reference value :  2.60000e-05
 Reference value :  2.60001e-05
 Reference value :  2.60002e-05
 Reference value :  2.60003e-05
 Reference value :  2.60013e-05
 Reference value :  2.60028e-05
 Reference value :  2.60039e-05
 Reference value :  2.60064e-05
 Reference value :  2.60075e-05
 Reference value :  2.60099e-05
 Reference value :  2.60125e-05
 Reference value :  2.60137e-05
 Reference value :  2.60173e-05
 Reference value :  2.60273e-05
 Reference value :  2.61129e-05
 Reference value :  2.62501e-05
 Reference value :  2.62502e-05
 Reference value :  2.62503e-05
 Reference value :  2.62506e-05
 Reference value :  2.62517e-05
 Reference value :  2.62535e-05
 Reference value :  2.62546e-05
 Reference value :  2.62569e-05
 Reference value :  2.62627e-05
 Reference value :  2.63228e-05
 Reference value :  2.65021e-05
 Reference value :  2.65063e-05
 Reference value :  2.65084e-05
 Reference value :  2.65122e-05
 Reference value :  2.65136e-05
 Reference value :  2.65161e-05
 Reference value :  2.65190e-05
 Reference value :  2.65226e-05
 Reference value :  2.65382e-05
 Reference value :  2.66162e-05
 Reference value :  2.67501e-05
 Reference value :  2.67502e-05
 Reference value :  2.67502e-05
 Reference value :  2.67503e-05
 Reference value :  2.67506e-05
 Reference value :  2.67513e-05
 Reference value :  2.67522e-05
 Reference value :  2.67532e-05
 Reference value :  2.67536e-05
 Reference value :  2.67547e-05
 Reference value :  2.67560e-05
 Reference value :  2.67601e-05
 Reference value :  2.67759e-05
 Reference value :  2.68958e-05
 Reference value :  2.70000e-05
 Reference value :  2.70001e-05
 Reference value :  2.70002e-05
 Reference value :  2.70009e-05
 Reference value :  2.70023e-05
 Reference value :  2.70033e-05
 Reference value :  2.70046e-05
 Reference value :  2.70064e-05
 Reference value :  2.70072e-05
 Reference value :  2.70089e-05
 Reference value :  2.70109e-05
 Reference value :  2.70240e-05
 Reference value :  2.71556e-05
 Reference value :  2.72501e-05
 Reference value :  2.72502e-05
 Reference value :  2.72503e-05
 Reference value :  2.72506e-05
 Reference value :  2.72517e-05
 Reference value :  2.72527e-05
 Reference value :  2.72540e-05
 Reference value :  2.72553e-05
 Reference value :  2.72569e-05
 Reference value :  2.72627e-05
 Reference value :  2.72770e-05
 Reference value :  2.73844e-05
 Reference value :  2.75000e-05
 Reference value :  2.75001e-05
 Reference value :  2.75002e-05
 Reference value :  2.75005e-05
 Reference value :  2.75013e-05
 Reference value :  2.75023e-05
 Reference value :  2.75033e-05
 Reference value :  2.75052e-05
 Reference value :  2.75065e-05
 Reference value :  2.75101e-05
 Reference value :  2.75128e-05
 Reference value :  2.75138e-05
 Reference value :  2.75158e-05
 Reference value :  2.75179e-05
 Reference value :  2.75224e-05
 Reference value :  2.75345e-05
 Reference value :  2.75444e-05
 Reference value :  2.75479e-05
 Reference value :  2.75563e-05
 Reference value :  2.75663e-05
 Reference value :  2.76010e-05
 Reference value :  2.76994e-05
 Reference value :  2.77501e-05
 Reference value :  2.77502e-05
 Reference value :  2.77504e-05
 Reference value :  2.77513e-05
 Reference value :  2.77522e-05
 Reference value :  2.77535e-05
 Reference value :  2.77545e-05
 Reference value :  2.77558e-05
 Reference value :  2.77598e-05
 Reference value :  2.77898e-05
 Reference value :  2.80021e-05
 Reference value :  2.80085e-05
 Reference value :  2.80132e-05
 Reference value :  2.80187e-05
 Reference value :  2.80358e-05
 Reference value :  2.80901e-05
 Reference value :  2.82501e-05
 Reference value :  2.82502e-05
 Reference value :  2.82502e-05
 Reference value :  2.82504e-05
 Reference value :  2.82513e-05
 Reference value :  2.82521e-05
 Reference value :  2.82532e-05
 Reference value :  2.82536e-05
 Reference value :  2.82547e-05
 Reference value :  2.82560e-05
 Reference value :  2.82576e-05
 Reference value :  2.82597e-05
 Reference value :  2.82665e-05
 Reference value :  2.83203e-05
 Reference value :  2.85000e-05
 Reference value :  2.85001e-05
 Reference value :  2.85001e-05
 Reference value :  2.85003e-05
 Reference value :  2.85013e-05
 Reference value :  2.85023e-05
 Reference value :  2.85033e-05
 Reference value :  2.85046e-05
 Reference value :  2.85058e-05
 Reference value :  2.85073e-05
 Reference value :  2.85105e-05
 Reference value :  2.85127e-05
 Reference value :  2.85143e-05
 Reference value :  2.85153e-05
 Reference value :  2.85184e-05
 Reference value :  2.85215e-05
 Reference value :  2.85358e-05
 Reference value :  2.85578e-05
 Reference value :  2.85691e-05
 Reference value :  2.85865e-05
 Reference value :  2.86068e-05
 Reference value :  2.86374e-05
 Reference value :  2.87048e-05
 Reference value :  2.87501e-05
 Reference value :  2.87501e-05
 Reference value :  2.87502e-05
 Reference value :  2.87503e-05
 Reference value :  2.87504e-05
 Reference value :  2.87513e-05
 Reference value :  2.87522e-05
 Reference value :  2.87535e-05
 Reference value :  2.87540e-05
 Reference value :  2.87553e-05
 Reference value :  2.87568e-05
 Reference value :  2.87632e-05
 Reference value :  2.87945e-05
 Reference value :  2.88415e-05
 Reference value :  2.88581e-05
 Reference value :  2.88892e-05
 Reference value :  2.89166e-05
 Reference value :  2.90000e-05
 Reference value :  2.90003e-05
 Reference value :  2.90012e-05
 Reference value :  2.90018e-05
 Reference value :  2.90029e-05
 Reference value :  2.90042e-05
 Reference value :  2.90059e-05
 Reference value :  2.90066e-05
 Reference value :  2.90083e-05
 Reference value :  2.90104e-05
 Reference value :  2.90170e-05
 Reference value :  2.90512e-05
 Reference value :  2.92501e-05
 Reference value :  2.92501e-05
 Reference value :  2.92502e-05
 Reference value :  2.92503e-05
 Reference value :  2.92504e-05
 Reference value :  2.92506e-05
 Reference value :  2.92512e-05
 Reference value :  2.92521e-05
 Reference value :  2.92534e-05
 Reference value :  2.92539e-05
 Reference value :  2.92552e-05
 Reference value :  2.92566e-05
 Reference value :  2.92585e-05
 Reference value :  2.92611e-05
 Reference value :  2.92658e-05
 Reference value :  2.92975e-05
 Reference value :  2.93828e-05
 Reference value :  2.95000e-05
 Reference value :  2.95001e-05
 Reference value :  2.95001e-05
 Reference value :  2.95002e-05
 Reference value :  2.95005e-05
 Reference value :  2.95013e-05
 Reference value :  2.95023e-05
 Reference value :  2.95033e-05
 Reference value :  2.95046e-05
 Reference value :  2.95058e-05
 Reference value :  2.95084e-05
 Reference value :  2.95105e-05
 Reference value :  2.95115e-05
 Reference value :  2.95135e-05
 Reference value :  2.95153e-05
 Reference value :  2.95184e-05
 Reference value :  2.95234e-05
 Reference value :  2.95256e-05
 Reference value :  2.95307e-05
 Reference value :  2.95350e-05
 Reference value :  2.95474e-05
 Reference value :  2.95892e-05
 Reference value :  2.96340e-05
 Reference value :  2.97501e-05
 Reference value :  2.97502e-05
 Reference value :  2.97502e-05
 Reference value :  2.97504e-05
 Reference value :  2.97510e-05
 Reference value :  2.97524e-05
 Reference value :  2.97538e-05
 Reference value :  2.97550e-05
 Reference value :  2.97565e-05
 Reference value :  2.97614e-05
 Reference value :  2.97854e-05
 Reference value :  2.99752e-05
 Reference value :  3.00000e-05
 Reference value :  3.00001e-05
 Reference value :  3.00002e-05
 Reference value :  3.00009e-05
 Reference value :  3.00020e-05
 Reference value :  3.00030e-05
 Reference value :  3.00041e-05
 Reference value :  3.00057e-05
 Reference value :  3.00064e-05
 Reference value :  3.00083e-05
 Reference value :  3.00102e-05
 Reference value :  3.00125e-05
 Reference value :  3.00269e-05
 Reference value :  3.01328e-05
 Reference value :  3.02501e-05
 Reference value :  3.02502e-05
 Reference value :  3.02503e-05
 Reference value :  3.02507e-05
 Reference value :  3.02515e-05
 Reference value :  3.02524e-05
 Reference value :  3.02538e-05
 Reference value :  3.02550e-05
 Reference value :  3.02564e-05
 Reference value :  3.02612e-05
 Reference value :  3.02829e-05
 Reference value :  3.05000e-05
 Reference value :  3.05011e-05
 Reference value :  3.05044e-05
 Reference value :  3.05064e-05
 Reference value :  3.05082e-05
 Reference value :  3.05107e-05
 Reference value :  3.05120e-05
 Reference value :  3.05143e-05
 Reference value :  3.05164e-05
 Reference value :  3.05185e-05
 Reference value :  3.05230e-05
 Reference value :  3.05358e-05
 Reference value :  3.05462e-05
 Reference value :  3.05619e-05
 Reference value :  3.05807e-05
 Reference value :  3.06060e-05
 Reference value :  3.06405e-05
 Reference value :  3.06524e-05
 Reference value :  3.06742e-05
 Reference value :  3.07212e-05
 Reference value :  3.07501e-05
 Reference value :  3.07502e-05
 Reference value :  3.07503e-05
 Reference value :  3.07505e-05
 Reference value :  3.07509e-05
 Reference value :  3.07515e-05
 Reference value :  3.07524e-05
 Reference value :  3.07538e-05
 Reference value :  3.07549e-05
 Reference value :  3.07563e-05
 Reference value :  3.07608e-05
 Reference value :  3.07795e-05
 Reference value :  3.09691e-05
 Reference value :  3.10000e-05
 Reference value :  3.10001e-05
 Reference value :  3.10002e-05
 Reference value :  3.10006e-05
 Reference value :  3.10015e-05
 Reference value :  3.10024e-05
 Reference value :  3.10035e-05
 Reference value :  3.10049e-05
 Reference value :  3.10064e-05
 Reference value :  3.10083e-05
 Reference value :  3.10102e-05
 Reference value :  3.10125e-05
 Reference value :  3.10268e-05
 Reference value :  3.11300e-05
 Reference value :  3.12501e-05
 Reference value :  3.12502e-05
 Reference value :  3.12503e-05
 Reference value :  3.12505e-05
 Reference value :  3.12515e-05
 Reference value :  3.12524e-05
 Reference value :  3.12538e-05
 Reference value :  3.12544e-05
 Reference value :  3.12557e-05
 Reference value :  3.12573e-05
 Reference value :  3.12646e-05
 Reference value :  3.13510e-05
 Reference value :  3.15000e-05
 Reference value :  3.15001e-05
 Reference value :  3.15001e-05
 Reference value :  3.15003e-05
 Reference value :  3.15009e-05
 Reference value :  3.15024e-05
 Reference value :  3.15035e-05
 Reference value :  3.15047e-05
 Reference value :  3.15066e-05
 Reference value :  3.15105e-05
 Reference value :  3.15119e-05
 Reference value :  3.15144e-05
 Reference value :  3.15164e-05
 Reference value :  3.15188e-05
 Reference value :  3.15222e-05
 Reference value :  3.15293e-05
 Reference value :  3.15387e-05
 Reference value :  3.15422e-05
 Reference value :  3.15499e-05
 Reference value :  3.15597e-05
 Reference value :  3.15780e-05
 Reference value :  3.16374e-05
 Reference value :  3.17501e-05
 Reference value :  3.17502e-05
 Reference value :  3.17502e-05
 Reference value :  3.17503e-05
 Reference value :  3.17505e-05
 Reference value :  3.17514e-05
 Reference value :  3.17524e-05
 Reference value :  3.17538e-05
 Reference value :  3.17543e-05
 Reference value :  3.17556e-05
 Reference value :  3.17564e-05
 Reference value :  3.17612e-05
 Reference value :  3.17831e-05
 Reference value :  3.18462e-05
 Reference value :  3.18869e-05
 Reference value :  3.19308e-05
 Reference value :  3.19886e-05
 Reference value :  3.20000e-05
 Reference value :  3.20001e-05
 Reference value :  3.20003e-05
 Reference value :  3.20015e-05
 Reference value :  3.20024e-05
 Reference value :  3.20035e-05
 Reference value :  3.20049e-05
 Reference value :  3.20064e-05
 Reference value :  3.20083e-05
 Reference value :  3.20113e-05
 Reference value :  3.20415e-05
 Reference value :  3.22501e-05
 Reference value :  3.22502e-05
 Reference value :  3.22503e-05
 Reference value :  3.22507e-05
 Reference value :  3.22519e-05
 Reference value :  3.22538e-05
 Reference value :  3.22550e-05
 Reference value :  3.22564e-05
 Reference value :  3.22612e-05
 Reference value :  3.23057e-05
 Reference value :  3.25000e-05
 Reference value :  3.25001e-05
 Reference value :  3.25001e-05
 Reference value :  3.25003e-05
 Reference value :  3.25015e-05
 Reference value :  3.25024e-05
 Reference value :  3.25035e-05
 Reference value :  3.25047e-05
 Reference value :  3.25066e-05
 Reference value :  3.25087e-05
 Reference value :  3.25119e-05
 Reference value :  3.25144e-05
 Reference value :  3.25163e-05
 Reference value :  3.25188e-05
 Reference value :  3.25221e-05
 Reference value :  3.25314e-05
 Reference value :  3.25401e-05
 Reference value :  3.25500e-05
 Reference value :  3.25700e-05
 Reference value :  3.26085e-05
 Reference value :  3.27370e-05
 Reference value :  3.27501e-05
 Reference value :  3.27502e-05
 Reference value :  3.27503e-05
 Reference value :  3.27505e-05
 Reference value :  3.27510e-05
 Reference value :  3.27519e-05
 Reference value :  3.27531e-05
 Reference value :  3.27543e-05
 Reference value :  3.27556e-05
 Reference value :  3.27573e-05
 Reference value :  3.27612e-05
 Reference value :  3.27831e-05
 Reference value :  3.29309e-05
 Reference value :  3.30000e-05
 Reference value :  3.30001e-05
 Reference value :  3.30002e-05
 Reference value :  3.30006e-05
 Reference value :  3.30015e-05
 Reference value :  3.30024e-05
 Reference value :  3.30035e-05
 Reference value :  3.30056e-05
 Reference value :  3.30074e-05
 Reference value :  3.30093e-05
 Reference value :  3.30114e-05
 Reference value :  3.30187e-05
 Reference value :  3.30587e-05
 Reference value :  3.32501e-05
 Reference value :  3.32502e-05
 Reference value :  3.32503e-05
 Reference value :  3.32504e-05
 Reference value :  3.32510e-05
 Reference value :  3.32519e-05
 Reference value :  3.32531e-05
 Reference value :  3.32538e-05
 Reference value :  3.32544e-05
 Reference value :  3.32557e-05
 Reference value :  3.32564e-05
 Reference value :  3.32581e-05
 Reference value :  3.32619e-05
 Reference value :  3.32810e-05
 Reference value :  3.34216e-05
 Reference value :  3.35013e-05
 Reference value :  3.35052e-05
 Reference value :  3.35077e-05
 Reference value :  3.35089e-05
 Reference value :  3.35111e-05
 Reference value :  3.35134e-05
 Reference value :  3.35183e-05
 Reference value :  3.35244e-05
 Reference value :  3.35297e-05
 Reference value :  3.35427e-05
 Reference value :  3.35475e-05
 Reference value :  3.35589e-05
 Reference value :  3.35867e-05
 Reference value :  3.36536e-05
 Reference value :  3.37501e-05
 Reference value :  3.37502e-05
 Reference value :  3.37504e-05
 Reference value :  3.37510e-05
 Reference value :  3.37523e-05
 Reference value :  3.37545e-05
 Reference value :  3.37575e-05
 Reference value :  3.37697e-05
 Reference value :  3.38410e-05
No. of Data Rows : 4859
ngspice-44 done
