
Note: Compatibility modes selected: hs a


Circuit: ** sch_path: /home/ece/cace/sar-adc-using-sky130-pdk/runs/run_2025-09-09_04-42-38/parameters/sampling_rate/run_07/sampling_rate.sch

option SCALE: Scale is set to 1e-06 for instance and model parameters
option SCALE: Scale is set to 1e-06 for instance and model parameters
option SCALE: Scale is set to 1e-06 for instance and model parameters
option SCALE: Scale is set to 1e-06 for instance and model parameters
Doing analysis at TEMP = 27.000000 and TNOM = 27.000000

Using KLU as Direct Linear Solver
Operating point simulation skipped by 'uic',
  now using transient initial conditions.
 Reference value :  1.00000e-12
 Reference value :  1.02772e-12
 Reference value :  1.08316e-12
 Reference value :  1.19404e-12
 Reference value :  1.33842e-12
 Reference value :  1.62719e-12
 Reference value :  2.20473e-12
 Reference value :  3.03998e-12
 Reference value :  3.94658e-12
 Reference value :  5.16976e-12
 Reference value :  6.92265e-12
 Reference value :  1.02748e-11
 Reference value :  1.42677e-11
 Reference value :  2.10095e-11
 Reference value :  2.79395e-11
 Reference value :  3.69896e-11
 Reference value :  4.85869e-11
 Reference value :  6.49186e-11
 Reference value :  8.60517e-11
 Reference value :  1.00000e-10
 Reference value :  1.01173e-10
 Reference value :  1.03519e-10
 Reference value :  1.08212e-10
 Reference value :  1.17597e-10
 Reference value :  1.36368e-10
 Reference value :  1.73909e-10
 Reference value :  2.48991e-10
 Reference value :  3.99156e-10
 Reference value :  5.59030e-10
 Reference value :  8.20490e-10
 Reference value :  1.16624e-09
 Reference value :  1.57254e-09
 Reference value :  2.22640e-09
 Reference value :  2.89884e-09
 Reference value :  3.81074e-09
 Reference value :  4.73820e-09
 Reference value :  5.59138e-09
 Reference value :  7.69754e-09
 Reference value :  8.94157e-09
 Reference value :  1.01221e-08
 Reference value :  1.09399e-08
 Reference value :  1.27968e-08
 Reference value :  1.58295e-08
 Reference value :  1.93880e-08
 Reference value :  2.30398e-08
 Reference value :  2.66319e-08
 Reference value :  3.01681e-08
 Reference value :  3.38288e-08
 Reference value :  3.74025e-08
 Reference value :  4.17842e-08
 Reference value :  4.99189e-08
 Reference value :  5.88257e-08
 Reference value :  7.66395e-08
 Reference value :  1.06014e-07
 Reference value :  1.56108e-07
 Reference value :  2.26070e-07
 Reference value :  2.50100e-07
 Reference value :  2.50110e-07
 Reference value :  2.50130e-07
 Reference value :  2.50170e-07
 Reference value :  2.50200e-07
 Reference value :  2.50201e-07
 Reference value :  2.50202e-07
 Reference value :  2.50204e-07
 Reference value :  2.50208e-07
 Reference value :  2.50216e-07
 Reference value :  2.50233e-07
 Reference value :  2.50266e-07
 Reference value :  2.50332e-07
 Reference value :  2.50438e-07
 Reference value :  2.50611e-07
 Reference value :  2.50808e-07
 Reference value :  2.51136e-07
 Reference value :  2.51583e-07
 Reference value :  2.52133e-07
 Reference value :  2.52731e-07
 Reference value :  2.53379e-07
 Reference value :  2.54229e-07
 Reference value :  2.55158e-07
 Reference value :  2.56089e-07
 Reference value :  2.56989e-07
 Reference value :  2.57973e-07
 Reference value :  2.58946e-07
 Reference value :  2.60499e-07
 Reference value :  2.62420e-07
 Reference value :  2.64910e-07
 Reference value :  2.68768e-07
 Reference value :  2.73510e-07
 Reference value :  2.82993e-07
 Reference value :  3.00571e-07
 Reference value :  3.29465e-07
 Reference value :  3.57697e-07
 Reference value :  3.76529e-07
 Reference value :  3.90519e-07
 Reference value :  3.98854e-07
 Reference value :  4.06411e-07
 Reference value :  4.14793e-07
 Reference value :  4.23310e-07
 Reference value :  4.36977e-07
 Reference value :  4.53221e-07
 Reference value :  4.78670e-07
 Reference value :  5.00000e-07
 Reference value :  5.00010e-07
 Reference value :  5.00070e-07
 Reference value :  5.00100e-07
 Reference value :  5.00104e-07
 Reference value :  5.00113e-07
 Reference value :  5.00130e-07
 Reference value :  5.00165e-07
 Reference value :  5.00234e-07
 Reference value :  5.00372e-07
 Reference value :  5.00574e-07
 Reference value :  5.00956e-07
 Reference value :  5.01538e-07
 Reference value :  5.02101e-07
 Reference value :  5.02770e-07
 Reference value :  5.03487e-07
 Reference value :  5.04290e-07
 Reference value :  5.05133e-07
 Reference value :  5.05939e-07
 Reference value :  5.06975e-07
 Reference value :  5.08039e-07
 Reference value :  5.09896e-07
 Reference value :  5.12245e-07
 Reference value :  5.14435e-07
 Reference value :  5.16818e-07
 Reference value :  5.19007e-07
 Reference value :  5.21619e-07
 Reference value :  5.24373e-07
 Reference value :  5.29302e-07
 Reference value :  5.36349e-07
 Reference value :  5.47622e-07
 Reference value :  5.68717e-07
 Reference value :  6.01483e-07
 Reference value :  6.65987e-07
 Reference value :  7.50100e-07
 Reference value :  7.50110e-07
 Reference value :  7.50130e-07
 Reference value :  7.50170e-07
 Reference value :  7.50200e-07
 Reference value :  7.50201e-07
 Reference value :  7.50202e-07
 Reference value :  7.50205e-07
 Reference value :  7.50211e-07
 Reference value :  7.50223e-07
 Reference value :  7.50295e-07
 Reference value :  7.50581e-07
 Reference value :  7.50959e-07
 Reference value :  7.51572e-07
 Reference value :  7.52191e-07
 Reference value :  7.52840e-07
 Reference value :  7.53541e-07
 Reference value :  7.54448e-07
 Reference value :  7.55177e-07
 Reference value :  7.56006e-07
 Reference value :  7.56734e-07
 Reference value :  7.57538e-07
 Reference value :  7.58555e-07
 Reference value :  7.59647e-07
 Reference value :  7.60725e-07
 Reference value :  7.62514e-07
 Reference value :  7.64133e-07
 Reference value :  7.67174e-07
 Reference value :  7.70197e-07
 Reference value :  7.82973e-07
 Reference value :  7.93603e-07
 Reference value :  8.11940e-07
 Reference value :  8.43371e-07
 Reference value :  9.95968e-07
 Reference value :  1.00001e-06
 Reference value :  1.00003e-06
 Reference value :  1.00007e-06
 Reference value :  1.00010e-06
 Reference value :  1.00010e-06
 Reference value :  1.00011e-06
 Reference value :  1.00013e-06
 Reference value :  1.00016e-06
 Reference value :  1.00023e-06
 Reference value :  1.00037e-06
 Reference value :  1.00057e-06
 Reference value :  1.00095e-06
 Reference value :  1.00154e-06
 Reference value :  1.00209e-06
 Reference value :  1.00276e-06
 Reference value :  1.00353e-06
 Reference value :  1.00440e-06
 Reference value :  1.00526e-06
 Reference value :  1.00610e-06
 Reference value :  1.00687e-06
 Reference value :  1.00761e-06
 Reference value :  1.00845e-06
 Reference value :  1.00939e-06
 Reference value :  1.01054e-06
 Reference value :  1.01242e-06
 Reference value :  1.01476e-06
 Reference value :  1.01646e-06
 Reference value :  1.01833e-06
 Reference value :  1.02032e-06
 Reference value :  1.02201e-06
 Reference value :  1.02331e-06
 Reference value :  1.02452e-06
 Reference value :  1.02569e-06
 Reference value :  1.02697e-06
 Reference value :  1.02851e-06
 Reference value :  1.03042e-06
 Reference value :  1.03312e-06
 Reference value :  1.03644e-06
 Reference value :  1.04307e-06
 Reference value :  1.05428e-06
 Reference value :  1.10534e-06
 Reference value :  1.16294e-06
 Reference value :  1.22244e-06
 Reference value :  1.25010e-06
 Reference value :  1.25011e-06
 Reference value :  1.25013e-06
 Reference value :  1.25017e-06
 Reference value :  1.25020e-06
 Reference value :  1.25020e-06
 Reference value :  1.25020e-06
 Reference value :  1.25021e-06
 Reference value :  1.25021e-06
 Reference value :  1.25022e-06
 Reference value :  1.25025e-06
 Reference value :  1.25029e-06
 Reference value :  1.25039e-06
 Reference value :  1.25058e-06
 Reference value :  1.25091e-06
 Reference value :  1.25156e-06
 Reference value :  1.25216e-06
 Reference value :  1.25279e-06
 Reference value :  1.25350e-06
 Reference value :  1.25440e-06
 Reference value :  1.25512e-06
 Reference value :  1.25595e-06
 Reference value :  1.25680e-06
 Reference value :  1.25770e-06
 Reference value :  1.25887e-06
 Reference value :  1.26042e-06
 Reference value :  1.26176e-06
 Reference value :  1.26317e-06
 Reference value :  1.26729e-06
 Reference value :  1.27536e-06
 Reference value :  1.28208e-06
 Reference value :  1.29499e-06
 Reference value :  1.31251e-06
 Reference value :  1.32890e-06
 Reference value :  1.35260e-06
 Reference value :  1.38402e-06
 Reference value :  1.50000e-06
 Reference value :  1.50003e-06
 Reference value :  1.50007e-06
 Reference value :  1.50010e-06
 Reference value :  1.50010e-06
 Reference value :  1.50011e-06
 Reference value :  1.50013e-06
 Reference value :  1.50017e-06
 Reference value :  1.50023e-06
 Reference value :  1.50037e-06
 Reference value :  1.50057e-06
 Reference value :  1.50093e-06
 Reference value :  1.50145e-06
 Reference value :  1.50198e-06
 Reference value :  1.50262e-06
 Reference value :  1.50339e-06
 Reference value :  1.50415e-06
 Reference value :  1.50495e-06
 Reference value :  1.50583e-06
 Reference value :  1.50675e-06
 Reference value :  1.50791e-06
 Reference value :  1.50926e-06
 Reference value :  1.51050e-06
 Reference value :  1.51180e-06
 Reference value :  1.51357e-06
 Reference value :  1.51504e-06
 Reference value :  1.51669e-06
 Reference value :  1.51830e-06
 Reference value :  1.52013e-06
 Reference value :  1.52379e-06
 Reference value :  1.53003e-06
 Reference value :  1.54030e-06
 Reference value :  1.60187e-06
 Reference value :  1.68396e-06
 Reference value :  1.75010e-06
 Reference value :  1.75011e-06
 Reference value :  1.75013e-06
 Reference value :  1.75017e-06
 Reference value :  1.75020e-06
 Reference value :  1.75020e-06
 Reference value :  1.75020e-06
 Reference value :  1.75021e-06
 Reference value :  1.75021e-06
 Reference value :  1.75022e-06
 Reference value :  1.75025e-06
 Reference value :  1.75029e-06
 Reference value :  1.75039e-06
 Reference value :  1.75057e-06
 Reference value :  1.75090e-06
 Reference value :  1.75156e-06
 Reference value :  1.75215e-06
 Reference value :  1.75278e-06
 Reference value :  1.75348e-06
 Reference value :  1.75440e-06
 Reference value :  1.75514e-06
 Reference value :  1.75598e-06
 Reference value :  1.75671e-06
 Reference value :  1.75751e-06
 Reference value :  1.75855e-06
 Reference value :  1.75966e-06
 Reference value :  1.76187e-06
 Reference value :  1.76419e-06
 Reference value :  1.76828e-06
 Reference value :  1.77267e-06
 Reference value :  1.78143e-06
 Reference value :  1.79897e-06
 Reference value :  1.83350e-06
 Reference value :  1.90256e-06
 Reference value :  2.00000e-06
 Reference value :  2.00001e-06
 Reference value :  2.00003e-06
 Reference value :  2.00007e-06
 Reference value :  2.00010e-06
 Reference value :  2.00010e-06
 Reference value :  2.00011e-06
 Reference value :  2.00013e-06
 Reference value :  2.00016e-06
 Reference value :  2.00023e-06
 Reference value :  2.00037e-06
 Reference value :  2.00057e-06
 Reference value :  2.00093e-06
 Reference value :  2.00143e-06
 Reference value :  2.00196e-06
 Reference value :  2.00260e-06
 Reference value :  2.00337e-06
 Reference value :  2.00412e-06
 Reference value :  2.00497e-06
 Reference value :  2.00572e-06
 Reference value :  2.00654e-06
 Reference value :  2.00756e-06
 Reference value :  2.00853e-06
 Reference value :  2.00954e-06
 Reference value :  2.01097e-06
 Reference value :  2.01251e-06
 Reference value :  2.01510e-06
 Reference value :  2.01830e-06
 Reference value :  2.02061e-06
 Reference value :  2.02270e-06
 Reference value :  2.02474e-06
 Reference value :  2.02668e-06
 Reference value :  2.02852e-06
 Reference value :  2.03088e-06
 Reference value :  2.03313e-06
 Reference value :  2.03615e-06
 Reference value :  2.03982e-06
 Reference value :  2.04494e-06
 Reference value :  2.05237e-06
 Reference value :  2.06316e-06
 Reference value :  2.07983e-06
 Reference value :  2.10523e-06
 Reference value :  2.14485e-06
 Reference value :  2.20698e-06
 Reference value :  2.25010e-06
 Reference value :  2.25011e-06
 Reference value :  2.25013e-06
 Reference value :  2.25017e-06
 Reference value :  2.25020e-06
 Reference value :  2.25020e-06
 Reference value :  2.25020e-06
 Reference value :  2.25021e-06
 Reference value :  2.25021e-06
 Reference value :  2.25022e-06
 Reference value :  2.25025e-06
 Reference value :  2.25029e-06
 Reference value :  2.25039e-06
 Reference value :  2.25057e-06
 Reference value :  2.25090e-06
 Reference value :  2.25156e-06
 Reference value :  2.25215e-06
 Reference value :  2.25279e-06
 Reference value :  2.25349e-06
 Reference value :  2.25440e-06
 Reference value :  2.25516e-06
 Reference value :  2.25601e-06
 Reference value :  2.25687e-06
 Reference value :  2.25778e-06
 Reference value :  2.25898e-06
 Reference value :  2.26085e-06
 Reference value :  2.26326e-06
 Reference value :  2.26641e-06
 Reference value :  2.27071e-06
 Reference value :  2.27770e-06
 Reference value :  2.29168e-06
 Reference value :  2.37247e-06
 Reference value :  2.42441e-06
 Reference value :  2.50001e-06
 Reference value :  2.50003e-06
 Reference value :  2.50007e-06
 Reference value :  2.50010e-06
 Reference value :  2.50010e-06
 Reference value :  2.50011e-06
 Reference value :  2.50013e-06
 Reference value :  2.50016e-06
 Reference value :  2.50023e-06
 Reference value :  2.50037e-06
 Reference value :  2.50057e-06
 Reference value :  2.50093e-06
 Reference value :  2.50143e-06
 Reference value :  2.50196e-06
 Reference value :  2.50260e-06
 Reference value :  2.50337e-06
 Reference value :  2.50412e-06
 Reference value :  2.50495e-06
 Reference value :  2.50595e-06
 Reference value :  2.50685e-06
 Reference value :  2.50810e-06
 Reference value :  2.50926e-06
 Reference value :  2.51069e-06
 Reference value :  2.51199e-06
 Reference value :  2.51362e-06
 Reference value :  2.51497e-06
 Reference value :  2.51654e-06
 Reference value :  2.51808e-06
 Reference value :  2.52341e-06
 Reference value :  2.52920e-06
 Reference value :  2.53980e-06
 Reference value :  2.56092e-06
 Reference value :  2.60315e-06
 Reference value :  2.68761e-06
 Reference value :  2.75010e-06
 Reference value :  2.75011e-06
 Reference value :  2.75013e-06
 Reference value :  2.75017e-06
 Reference value :  2.75020e-06
 Reference value :  2.75020e-06
 Reference value :  2.75020e-06
 Reference value :  2.75021e-06
 Reference value :  2.75021e-06
 Reference value :  2.75022e-06
 Reference value :  2.75029e-06
 Reference value :  2.75039e-06
 Reference value :  2.75057e-06
 Reference value :  2.75090e-06
 Reference value :  2.75156e-06
 Reference value :  2.75215e-06
 Reference value :  2.75279e-06
 Reference value :  2.75349e-06
 Reference value :  2.75440e-06
 Reference value :  2.75514e-06
 Reference value :  2.75598e-06
 Reference value :  2.75670e-06
 Reference value :  2.75751e-06
 Reference value :  2.75854e-06
 Reference value :  2.75965e-06
 Reference value :  2.76185e-06
 Reference value :  2.76417e-06
 Reference value :  2.76825e-06
 Reference value :  2.77262e-06
 Reference value :  2.78136e-06
 Reference value :  2.79884e-06
 Reference value :  2.83381e-06
 Reference value :  2.90375e-06
 Reference value :  3.00000e-06
 Reference value :  3.00001e-06
 Reference value :  3.00003e-06
 Reference value :  3.00007e-06
 Reference value :  3.00010e-06
 Reference value :  3.00010e-06
 Reference value :  3.00011e-06
 Reference value :  3.00013e-06
 Reference value :  3.00016e-06
 Reference value :  3.00023e-06
 Reference value :  3.00037e-06
 Reference value :  3.00057e-06
 Reference value :  3.00093e-06
 Reference value :  3.00143e-06
 Reference value :  3.00196e-06
 Reference value :  3.00260e-06
 Reference value :  3.00337e-06
 Reference value :  3.00412e-06
 Reference value :  3.00497e-06
 Reference value :  3.00575e-06
 Reference value :  3.00655e-06
 Reference value :  3.00763e-06
 Reference value :  3.00863e-06
 Reference value :  3.01107e-06
 Reference value :  3.01546e-06
 Reference value :  3.01836e-06
 Reference value :  3.02065e-06
 Reference value :  3.02252e-06
 Reference value :  3.02430e-06
 Reference value :  3.02589e-06
 Reference value :  3.02761e-06
 Reference value :  3.02964e-06
 Reference value :  3.03162e-06
 Reference value :  3.03453e-06
 Reference value :  3.03782e-06
 Reference value :  3.04339e-06
 Reference value :  3.04953e-06
 Reference value :  3.05520e-06
 Reference value :  3.06032e-06
 Reference value :  3.06510e-06
 Reference value :  3.06890e-06
 Reference value :  3.07311e-06
 Reference value :  3.07701e-06
 Reference value :  3.08151e-06
 Reference value :  3.08905e-06
 Reference value :  3.09647e-06
 Reference value :  3.10367e-06
 Reference value :  3.12217e-06
 Reference value :  3.14051e-06
 Reference value :  3.16851e-06
 Reference value :  3.20992e-06
 Reference value :  3.25010e-06
 Reference value :  3.25011e-06
 Reference value :  3.25013e-06
 Reference value :  3.25017e-06
 Reference value :  3.25020e-06
 Reference value :  3.25020e-06
 Reference value :  3.25020e-06
 Reference value :  3.25021e-06
 Reference value :  3.25021e-06
 Reference value :  3.25022e-06
 Reference value :  3.25025e-06
 Reference value :  3.25029e-06
 Reference value :  3.25039e-06
 Reference value :  3.25057e-06
 Reference value :  3.25090e-06
 Reference value :  3.25156e-06
 Reference value :  3.25215e-06
 Reference value :  3.25279e-06
 Reference value :  3.25349e-06
 Reference value :  3.25440e-06
 Reference value :  3.25512e-06
 Reference value :  3.25679e-06
 Reference value :  3.25768e-06
 Reference value :  3.25884e-06
 Reference value :  3.26078e-06
 Reference value :  3.26323e-06
 Reference value :  3.26627e-06
 Reference value :  3.27059e-06
 Reference value :  3.27724e-06
 Reference value :  3.29055e-06
 Reference value :  3.31717e-06
 Reference value :  3.37040e-06
 Reference value :  3.47686e-06
 Reference value :  3.50000e-06
 Reference value :  3.50001e-06
 Reference value :  3.50003e-06
 Reference value :  3.50007e-06
 Reference value :  3.50010e-06
 Reference value :  3.50010e-06
 Reference value :  3.50011e-06
 Reference value :  3.50013e-06
 Reference value :  3.50016e-06
 Reference value :  3.50023e-06
 Reference value :  3.50057e-06
 Reference value :  3.50093e-06
 Reference value :  3.50144e-06
 Reference value :  3.50196e-06
 Reference value :  3.50256e-06
 Reference value :  3.50328e-06
 Reference value :  3.50403e-06
 Reference value :  3.50495e-06
 Reference value :  3.50585e-06
 Reference value :  3.50685e-06
 Reference value :  3.50798e-06
 Reference value :  3.50926e-06
 Reference value :  3.51048e-06
 Reference value :  3.51175e-06
 Reference value :  3.51348e-06
 Reference value :  3.51491e-06
 Reference value :  3.51647e-06
 Reference value :  3.51803e-06
 Reference value :  3.51985e-06
 Reference value :  3.52341e-06
 Reference value :  3.52855e-06
 Reference value :  3.53883e-06
 Reference value :  3.55939e-06
 Reference value :  3.60051e-06
 Reference value :  3.68276e-06
 Reference value :  3.75010e-06
 Reference value :  3.75011e-06
 Reference value :  3.75013e-06
 Reference value :  3.75017e-06
 Reference value :  3.75020e-06
 Reference value :  3.75020e-06
 Reference value :  3.75021e-06
 Reference value :  3.75022e-06
 Reference value :  3.75029e-06
 Reference value :  3.75057e-06
 Reference value :  3.75090e-06
 Reference value :  3.75156e-06
 Reference value :  3.75215e-06
 Reference value :  3.75279e-06
 Reference value :  3.75349e-06
 Reference value :  3.75440e-06
 Reference value :  3.75514e-06
 Reference value :  3.75598e-06
 Reference value :  3.75670e-06
 Reference value :  3.75751e-06
 Reference value :  3.75854e-06
 Reference value :  3.76076e-06
 Reference value :  3.76246e-06
 Reference value :  3.76449e-06
 Reference value :  3.76716e-06
 Reference value :  3.77068e-06
 Reference value :  3.77523e-06
 Reference value :  3.78433e-06
 Reference value :  3.79807e-06
 Reference value :  3.82557e-06
 Reference value :  3.99051e-06
 Reference value :  4.00001e-06
 Reference value :  4.00007e-06
 Reference value :  4.00010e-06
 Reference value :  4.00011e-06
 Reference value :  4.00013e-06
 Reference value :  4.00017e-06
 Reference value :  4.00023e-06
 Reference value :  4.00037e-06
 Reference value :  4.00093e-06
 Reference value :  4.00145e-06
 Reference value :  4.00198e-06
 Reference value :  4.00262e-06
 Reference value :  4.00338e-06
 Reference value :  4.00415e-06
 Reference value :  4.00498e-06
 Reference value :  4.00570e-06
 Reference value :  4.00648e-06
 Reference value :  4.00720e-06
 Reference value :  4.00804e-06
 Reference value :  4.00886e-06
 Reference value :  4.00995e-06
 Reference value :  4.01118e-06
 Reference value :  4.01322e-06
 Reference value :  4.01459e-06
 Reference value :  4.01612e-06
 Reference value :  4.01767e-06
 Reference value :  4.01940e-06
 Reference value :  4.02101e-06
 Reference value :  4.02234e-06
 Reference value :  4.02379e-06
 Reference value :  4.02512e-06
 Reference value :  4.02662e-06
 Reference value :  4.02812e-06
 Reference value :  4.02970e-06
 Reference value :  4.03236e-06
 Reference value :  4.03530e-06
 Reference value :  4.04119e-06
 Reference value :  4.04921e-06
 Reference value :  4.06187e-06
 Reference value :  4.07939e-06
 Reference value :  4.09697e-06
 Reference value :  4.11811e-06
 Reference value :  4.13792e-06
 Reference value :  4.15908e-06
 Reference value :  4.17706e-06
 Reference value :  4.19899e-06
 Reference value :  4.22392e-06
 Reference value :  4.24924e-06
 Reference value :  4.25010e-06
 Reference value :  4.25011e-06
 Reference value :  4.25013e-06
 Reference value :  4.25017e-06
 Reference value :  4.25020e-06
 Reference value :  4.25020e-06
 Reference value :  4.25020e-06
 Reference value :  4.25021e-06
 Reference value :  4.25021e-06
 Reference value :  4.25025e-06
 Reference value :  4.25029e-06
 Reference value :  4.25039e-06
 Reference value :  4.25057e-06
 Reference value :  4.25155e-06
 Reference value :  4.25215e-06
 Reference value :  4.25279e-06
 Reference value :  4.25349e-06
 Reference value :  4.25440e-06
 Reference value :  4.25513e-06
 Reference value :  4.25596e-06
 Reference value :  4.25682e-06
 Reference value :  4.25771e-06
 Reference value :  4.25888e-06
 Reference value :  4.26079e-06
 Reference value :  4.26322e-06
 Reference value :  4.26630e-06
 Reference value :  4.27061e-06
 Reference value :  4.27717e-06
 Reference value :  4.29028e-06
 Reference value :  4.31651e-06
 Reference value :  4.36897e-06
 Reference value :  4.47388e-06
 Reference value :  4.50000e-06
 Reference value :  4.50001e-06
 Reference value :  4.50003e-06
 Reference value :  4.50007e-06
 Reference value :  4.50010e-06
 Reference value :  4.50010e-06
 Reference value :  4.50011e-06
 Reference value :  4.50013e-06
 Reference value :  4.50016e-06
 Reference value :  4.50023e-06
 Reference value :  4.50037e-06
 Reference value :  4.50057e-06
 Reference value :  4.50093e-06
 Reference value :  4.50143e-06
 Reference value :  4.50196e-06
 Reference value :  4.50256e-06
 Reference value :  4.50328e-06
 Reference value :  4.50402e-06
 Reference value :  4.50495e-06
 Reference value :  4.50584e-06
 Reference value :  4.50684e-06
 Reference value :  4.50798e-06
 Reference value :  4.50916e-06
 Reference value :  4.51038e-06
 Reference value :  4.51164e-06
 Reference value :  4.51325e-06
 Reference value :  4.51468e-06
 Reference value :  4.51620e-06
 Reference value :  4.51785e-06
 Reference value :  4.51971e-06
 Reference value :  4.52314e-06
 Reference value :  4.52817e-06
 Reference value :  4.53819e-06
 Reference value :  4.55735e-06
 Reference value :  4.59435e-06
 Reference value :  4.66834e-06
 Reference value :  4.75010e-06
 Reference value :  4.75011e-06
 Reference value :  4.75013e-06
 Reference value :  4.75017e-06
 Reference value :  4.75020e-06
 Reference value :  4.75020e-06
 Reference value :  4.75021e-06
 Reference value :  4.75022e-06
 Reference value :  4.75025e-06
 Reference value :  4.75029e-06
 Reference value :  4.75039e-06
 Reference value :  4.75057e-06
 Reference value :  4.75090e-06
 Reference value :  4.75155e-06
 Reference value :  4.75215e-06
 Reference value :  4.75278e-06
 Reference value :  4.75348e-06
 Reference value :  4.75440e-06
 Reference value :  4.75514e-06
 Reference value :  4.75598e-06
 Reference value :  4.75671e-06
 Reference value :  4.75751e-06
 Reference value :  4.75855e-06
 Reference value :  4.75965e-06
 Reference value :  4.76079e-06
 Reference value :  4.76247e-06
 Reference value :  4.76456e-06
 Reference value :  4.76717e-06
 Reference value :  4.77077e-06
 Reference value :  4.77529e-06
 Reference value :  4.78434e-06
 Reference value :  4.79860e-06
 Reference value :  4.82713e-06
 Reference value :  4.88419e-06
 Reference value :  4.99832e-06
 Reference value :  5.00000e-06
 Reference value :  5.00001e-06
 Reference value :  5.00003e-06
 Reference value :  5.00007e-06
 Reference value :  5.00010e-06
 Reference value :  5.00010e-06
 Reference value :  5.00011e-06
 Reference value :  5.00013e-06
 Reference value :  5.00017e-06
 Reference value :  5.00023e-06
 Reference value :  5.00037e-06
 Reference value :  5.00057e-06
 Reference value :  5.00093e-06
 Reference value :  5.00145e-06
 Reference value :  5.00197e-06
 Reference value :  5.00261e-06
 Reference value :  5.00338e-06
 Reference value :  5.00414e-06
 Reference value :  5.00497e-06
 Reference value :  5.00569e-06
 Reference value :  5.00648e-06
 Reference value :  5.00720e-06
 Reference value :  5.00804e-06
 Reference value :  5.00891e-06
 Reference value :  5.00998e-06
 Reference value :  5.01133e-06
 Reference value :  5.01335e-06
 Reference value :  5.01466e-06
 Reference value :  5.01619e-06
 Reference value :  5.01788e-06
 Reference value :  5.01956e-06
 Reference value :  5.02131e-06
 Reference value :  5.02283e-06
 Reference value :  5.02442e-06
 Reference value :  5.02576e-06
 Reference value :  5.02724e-06
 Reference value :  5.02906e-06
 Reference value :  5.03089e-06
 Reference value :  5.03381e-06
 Reference value :  5.03700e-06
 Reference value :  5.04339e-06
 Reference value :  5.04963e-06
 Reference value :  5.05726e-06
 Reference value :  5.06356e-06
 Reference value :  5.06802e-06
 Reference value :  5.07221e-06
 Reference value :  5.07662e-06
 Reference value :  5.08333e-06
 Reference value :  5.09205e-06
 Reference value :  5.10443e-06
 Reference value :  5.12283e-06
 Reference value :  5.14878e-06
 Reference value :  5.18810e-06
 Reference value :  5.24538e-06
 Reference value :  5.25011e-06
 Reference value :  5.25013e-06
 Reference value :  5.25017e-06
 Reference value :  5.25020e-06
 Reference value :  5.25020e-06
 Reference value :  5.25021e-06
 Reference value :  5.25022e-06
 Reference value :  5.25025e-06
 Reference value :  5.25029e-06
 Reference value :  5.25039e-06
 Reference value :  5.25057e-06
 Reference value :  5.25090e-06
 Reference value :  5.25156e-06
 Reference value :  5.25216e-06
 Reference value :  5.25279e-06
 Reference value :  5.25350e-06
 Reference value :  5.25441e-06
 Reference value :  5.25516e-06
 Reference value :  5.25601e-06
 Reference value :  5.25687e-06
 Reference value :  5.25777e-06
 Reference value :  5.25896e-06
 Reference value :  5.26087e-06
 Reference value :  5.26326e-06
 Reference value :  5.26642e-06
 Reference value :  5.27070e-06
 Reference value :  5.27771e-06
 Reference value :  5.29173e-06
 Reference value :  5.31814e-06
 Reference value :  5.37097e-06
 Reference value :  5.47661e-06
 Reference value :  5.50000e-06
 Reference value :  5.50001e-06
 Reference value :  5.50003e-06
 Reference value :  5.50007e-06
 Reference value :  5.50010e-06
 Reference value :  5.50010e-06
 Reference value :  5.50011e-06
 Reference value :  5.50013e-06
 Reference value :  5.50016e-06
 Reference value :  5.50023e-06
 Reference value :  5.50037e-06
 Reference value :  5.50057e-06
 Reference value :  5.50093e-06
 Reference value :  5.50143e-06
 Reference value :  5.50196e-06
 Reference value :  5.50260e-06
 Reference value :  5.50337e-06
 Reference value :  5.50493e-06
 Reference value :  5.50583e-06
 Reference value :  5.50675e-06
 Reference value :  5.50794e-06
 Reference value :  5.50912e-06
 Reference value :  5.51035e-06
 Reference value :  5.51161e-06
 Reference value :  5.51321e-06
 Reference value :  5.51470e-06
 Reference value :  5.51625e-06
 Reference value :  5.51805e-06
 Reference value :  5.52005e-06
 Reference value :  5.52358e-06
 Reference value :  5.52877e-06
 Reference value :  5.53846e-06
 Reference value :  5.55651e-06
 Reference value :  5.58988e-06
 Reference value :  5.65610e-06
 Reference value :  5.75010e-06
 Reference value :  5.75011e-06
 Reference value :  5.75013e-06
 Reference value :  5.75017e-06
 Reference value :  5.75020e-06
 Reference value :  5.75020e-06
 Reference value :  5.75020e-06
 Reference value :  5.75021e-06
 Reference value :  5.75021e-06
 Reference value :  5.75022e-06
 Reference value :  5.75025e-06
 Reference value :  5.75029e-06
 Reference value :  5.75039e-06
 Reference value :  5.75057e-06
 Reference value :  5.75090e-06
 Reference value :  5.75156e-06
 Reference value :  5.75216e-06
 Reference value :  5.75279e-06
 Reference value :  5.75350e-06
 Reference value :  5.75441e-06
 Reference value :  5.75514e-06
 Reference value :  5.75598e-06
 Reference value :  5.75670e-06
 Reference value :  5.75750e-06
 Reference value :  5.75853e-06
 Reference value :  5.75963e-06
 Reference value :  5.76183e-06
 Reference value :  5.76414e-06
 Reference value :  5.76821e-06
 Reference value :  5.77256e-06
 Reference value :  5.78128e-06
 Reference value :  5.79871e-06
 Reference value :  5.83357e-06
 Reference value :  5.90329e-06
 Reference value :  6.00000e-06
 Reference value :  6.00001e-06
 Reference value :  6.00003e-06
 Reference value :  6.00007e-06
 Reference value :  6.00010e-06
 Reference value :  6.00010e-06
 Reference value :  6.00011e-06
 Reference value :  6.00013e-06
 Reference value :  6.00016e-06
 Reference value :  6.00023e-06
 Reference value :  6.00037e-06
 Reference value :  6.00057e-06
 Reference value :  6.00093e-06
 Reference value :  6.00143e-06
 Reference value :  6.00196e-06
 Reference value :  6.00260e-06
 Reference value :  6.00337e-06
 Reference value :  6.00412e-06
 Reference value :  6.00497e-06
 Reference value :  6.00575e-06
 Reference value :  6.00655e-06
 Reference value :  6.00731e-06
 Reference value :  6.00820e-06
 Reference value :  6.00910e-06
 Reference value :  6.01026e-06
 Reference value :  6.01205e-06
 Reference value :  6.01683e-06
 Reference value :  6.01900e-06
 Reference value :  6.02133e-06
 Reference value :  6.02301e-06
 Reference value :  6.02459e-06
 Reference value :  6.02593e-06
 Reference value :  6.02743e-06
 Reference value :  6.02919e-06
 Reference value :  6.03126e-06
 Reference value :  6.03394e-06
 Reference value :  6.03747e-06
 Reference value :  6.04983e-06
 Reference value :  6.05646e-06
 Reference value :  6.06125e-06
 Reference value :  6.06623e-06
 Reference value :  6.07135e-06
 Reference value :  6.07706e-06
 Reference value :  6.08422e-06
 Reference value :  6.09147e-06
 Reference value :  6.09996e-06
 Reference value :  6.10805e-06
 Reference value :  6.12425e-06
 Reference value :  6.17495e-06
 Reference value :  6.21680e-06
 Reference value :  6.25011e-06
 Reference value :  6.25013e-06
 Reference value :  6.25017e-06
 Reference value :  6.25020e-06
 Reference value :  6.25020e-06
 Reference value :  6.25020e-06
 Reference value :  6.25021e-06
 Reference value :  6.25021e-06
 Reference value :  6.25022e-06
 Reference value :  6.25025e-06
 Reference value :  6.25029e-06
 Reference value :  6.25039e-06
 Reference value :  6.25058e-06
 Reference value :  6.25091e-06
 Reference value :  6.25157e-06
 Reference value :  6.25218e-06
 Reference value :  6.25282e-06
 Reference value :  6.25352e-06
 Reference value :  6.25442e-06
 Reference value :  6.25512e-06
 Reference value :  6.25591e-06
 Reference value :  6.25677e-06
 Reference value :  6.25764e-06
 Reference value :  6.25880e-06
 Reference value :  6.26071e-06
 Reference value :  6.26321e-06
 Reference value :  6.26620e-06
 Reference value :  6.27053e-06
 Reference value :  6.27696e-06
 Reference value :  6.28982e-06
 Reference value :  6.31554e-06
 Reference value :  6.36697e-06
 Reference value :  6.46983e-06
 Reference value :  6.50000e-06
 Reference value :  6.50001e-06
 Reference value :  6.50003e-06
 Reference value :  6.50007e-06
 Reference value :  6.50010e-06
 Reference value :  6.50010e-06
 Reference value :  6.50011e-06
 Reference value :  6.50013e-06
 Reference value :  6.50016e-06
 Reference value :  6.50023e-06
 Reference value :  6.50037e-06
 Reference value :  6.50057e-06
 Reference value :  6.50093e-06
 Reference value :  6.50144e-06
 Reference value :  6.50196e-06
 Reference value :  6.50256e-06
 Reference value :  6.50328e-06
 Reference value :  6.50403e-06
 Reference value :  6.50495e-06
 Reference value :  6.50585e-06
 Reference value :  6.50686e-06
 Reference value :  6.50799e-06
 Reference value :  6.50928e-06
 Reference value :  6.51051e-06
 Reference value :  6.51178e-06
 Reference value :  6.51352e-06
 Reference value :  6.51520e-06
 Reference value :  6.51682e-06
 Reference value :  6.51883e-06
 Reference value :  6.52102e-06
 Reference value :  6.52467e-06
 Reference value :  6.53004e-06
 Reference value :  6.53934e-06
 Reference value :  6.58589e-06
 Reference value :  6.74511e-06
 Reference value :  6.75010e-06
 Reference value :  6.75011e-06
 Reference value :  6.75013e-06
 Reference value :  6.75017e-06
 Reference value :  6.75020e-06
 Reference value :  6.75020e-06
 Reference value :  6.75020e-06
 Reference value :  6.75021e-06
 Reference value :  6.75025e-06
 Reference value :  6.75039e-06
 Reference value :  6.75058e-06
 Reference value :  6.75091e-06
 Reference value :  6.75158e-06
 Reference value :  6.75219e-06
 Reference value :  6.75283e-06
 Reference value :  6.75353e-06
 Reference value :  6.75443e-06
 Reference value :  6.75514e-06
 Reference value :  6.75596e-06
 Reference value :  6.75667e-06
 Reference value :  6.75746e-06
 Reference value :  6.75848e-06
 Reference value :  6.75956e-06
 Reference value :  6.76065e-06
 Reference value :  6.76239e-06
 Reference value :  6.76420e-06
 Reference value :  6.76707e-06
 Reference value :  6.77031e-06
 Reference value :  6.77496e-06
 Reference value :  6.78397e-06
 Reference value :  6.79573e-06
 Reference value :  6.81868e-06
 Reference value :  6.86242e-06
 Reference value :  6.94693e-06
 Reference value :  7.00000e-06
 Reference value :  7.00001e-06
 Reference value :  7.00003e-06
 Reference value :  7.00007e-06
 Reference value :  7.00010e-06
 Reference value :  7.00010e-06
 Reference value :  7.00011e-06
 Reference value :  7.00013e-06
 Reference value :  7.00017e-06
 Reference value :  7.00037e-06
 Reference value :  7.00057e-06
 Reference value :  7.00093e-06
 Reference value :  7.00145e-06
 Reference value :  7.00198e-06
 Reference value :  7.00262e-06
 Reference value :  7.00338e-06
 Reference value :  7.00415e-06
 Reference value :  7.00498e-06
 Reference value :  7.00569e-06
 Reference value :  7.00648e-06
 Reference value :  7.00720e-06
 Reference value :  7.00804e-06
 Reference value :  7.00895e-06
 Reference value :  7.01000e-06
 Reference value :  7.01146e-06
 Reference value :  7.01345e-06
 Reference value :  7.01489e-06
 Reference value :  7.01648e-06
 Reference value :  7.01809e-06
 Reference value :  7.01988e-06
 Reference value :  7.02155e-06
 Reference value :  7.02282e-06
 Reference value :  7.02399e-06
 Reference value :  7.02539e-06
 Reference value :  7.02671e-06
 Reference value :  7.02816e-06
 Reference value :  7.02967e-06
 Reference value :  7.03210e-06
 Reference value :  7.03468e-06
 Reference value :  7.03952e-06
 Reference value :  7.04393e-06
 Reference value :  7.05055e-06
 Reference value :  7.05940e-06
 Reference value :  7.07710e-06
 Reference value :  7.11113e-06
 Reference value :  7.15896e-06
 Reference value :  7.22536e-06
 Reference value :  7.25010e-06
 Reference value :  7.25011e-06
 Reference value :  7.25013e-06
 Reference value :  7.25017e-06
 Reference value :  7.25020e-06
 Reference value :  7.25020e-06
 Reference value :  7.25020e-06
 Reference value :  7.25021e-06
 Reference value :  7.25021e-06
 Reference value :  7.25022e-06
 Reference value :  7.25025e-06
 Reference value :  7.25029e-06
 Reference value :  7.25039e-06
 Reference value :  7.25057e-06
 Reference value :  7.25091e-06
 Reference value :  7.25156e-06
 Reference value :  7.25216e-06
 Reference value :  7.25280e-06
 Reference value :  7.25351e-06
 Reference value :  7.25441e-06
 Reference value :  7.25511e-06
 Reference value :  7.25591e-06
 Reference value :  7.25678e-06
 Reference value :  7.25766e-06
 Reference value :  7.25881e-06
 Reference value :  7.26077e-06
 Reference value :  7.26322e-06
 Reference value :  7.26625e-06
 Reference value :  7.27057e-06
 Reference value :  7.27716e-06
 Reference value :  7.29035e-06
 Reference value :  7.31672e-06
 Reference value :  7.36946e-06
 Reference value :  7.47496e-06
 Reference value :  7.50000e-06
 Reference value :  7.50001e-06
 Reference value :  7.50003e-06
 Reference value :  7.50007e-06
 Reference value :  7.50010e-06
 Reference value :  7.50010e-06
 Reference value :  7.50011e-06
 Reference value :  7.50013e-06
 Reference value :  7.50016e-06
 Reference value :  7.50023e-06
 Reference value :  7.50037e-06
 Reference value :  7.50056e-06
 Reference value :  7.50151e-06
 Reference value :  7.50267e-06
 Reference value :  7.50337e-06
 Reference value :  7.50418e-06
 Reference value :  7.50501e-06
 Reference value :  7.50596e-06
 Reference value :  7.50694e-06
 Reference value :  7.50812e-06
 Reference value :  7.50933e-06
 Reference value :  7.51058e-06
 Reference value :  7.51186e-06
 Reference value :  7.51351e-06
 Reference value :  7.51495e-06
 Reference value :  7.51648e-06
 Reference value :  7.51814e-06
 Reference value :  7.52001e-06
 Reference value :  7.52342e-06
 Reference value :  7.52838e-06
 Reference value :  7.53822e-06
 Reference value :  7.55691e-06
 Reference value :  7.59278e-06
 Reference value :  7.66453e-06
 Reference value :  7.75010e-06
 Reference value :  7.75011e-06
 Reference value :  7.75013e-06
 Reference value :  7.75017e-06
 Reference value :  7.75020e-06
 Reference value :  7.75020e-06
 Reference value :  7.75020e-06
 Reference value :  7.75021e-06
 Reference value :  7.75021e-06
 Reference value :  7.75022e-06
 Reference value :  7.75025e-06
 Reference value :  7.75029e-06
 Reference value :  7.75039e-06
 Reference value :  7.75057e-06
 Reference value :  7.75091e-06
 Reference value :  7.75157e-06
 Reference value :  7.75217e-06
 Reference value :  7.75281e-06
 Reference value :  7.75352e-06
 Reference value :  7.75442e-06
 Reference value :  7.75512e-06
 Reference value :  7.75592e-06
 Reference value :  7.75664e-06
 Reference value :  7.75742e-06
 Reference value :  7.75845e-06
 Reference value :  7.75955e-06
 Reference value :  7.76064e-06
 Reference value :  7.76240e-06
 Reference value :  7.76423e-06
 Reference value :  7.76706e-06
 Reference value :  7.77039e-06
 Reference value :  7.77502e-06
 Reference value :  7.78418e-06
 Reference value :  7.79607e-06
 Reference value :  7.81955e-06
 Reference value :  7.86409e-06
 Reference value :  7.95033e-06
 Reference value :  8.00000e-06
 Reference value :  8.00001e-06
 Reference value :  8.00003e-06
 Reference value :  8.00007e-06
 Reference value :  8.00010e-06
 Reference value :  8.00010e-06
 Reference value :  8.00011e-06
 Reference value :  8.00013e-06
 Reference value :  8.00017e-06
 Reference value :  8.00023e-06
 Reference value :  8.00057e-06
 Reference value :  8.00093e-06
 Reference value :  8.00151e-06
 Reference value :  8.00205e-06
 Reference value :  8.00270e-06
 Reference value :  8.00347e-06
 Reference value :  8.00429e-06
 Reference value :  8.00514e-06
 Reference value :  8.00596e-06
 Reference value :  8.00670e-06
 Reference value :  8.00741e-06
 Reference value :  8.00823e-06
 Reference value :  8.00915e-06
 Reference value :  8.01026e-06
 Reference value :  8.01210e-06
 Reference value :  8.01414e-06
 Reference value :  8.01566e-06
 Reference value :  8.01733e-06
 Reference value :  8.01900e-06
 Reference value :  8.02089e-06
 Reference value :  8.02282e-06
 Reference value :  8.02495e-06
 Reference value :  8.02796e-06
 Reference value :  8.03145e-06
 Reference value :  8.03606e-06
 Reference value :  8.04212e-06
 Reference value :  8.05158e-06
 Reference value :  8.06106e-06
 Reference value :  8.06804e-06
 Reference value :  8.07466e-06
 Reference value :  8.08391e-06
 Reference value :  8.09349e-06
 Reference value :  8.10599e-06
 Reference value :  8.12024e-06
 Reference value :  8.14874e-06
 Reference value :  8.18285e-06
 Reference value :  8.24147e-06
 Reference value :  8.25010e-06
 Reference value :  8.25011e-06
 Reference value :  8.25013e-06
 Reference value :  8.25017e-06
 Reference value :  8.25020e-06
 Reference value :  8.25020e-06
 Reference value :  8.25020e-06
 Reference value :  8.25021e-06
 Reference value :  8.25021e-06
 Reference value :  8.25022e-06
 Reference value :  8.25025e-06
 Reference value :  8.25029e-06
 Reference value :  8.25039e-06
 Reference value :  8.25057e-06
 Reference value :  8.25095e-06
 Reference value :  8.25158e-06
 Reference value :  8.25220e-06
 Reference value :  8.25286e-06
 Reference value :  8.25356e-06
 Reference value :  8.25444e-06
 Reference value :  8.25540e-06
 Reference value :  8.25661e-06
 Reference value :  8.25790e-06
 Reference value :  8.25938e-06
 Reference value :  8.26199e-06
 Reference value :  8.26454e-06
 Reference value :  8.27324e-06
 Reference value :  8.28271e-06
 Reference value :  8.30167e-06
 Reference value :  8.33957e-06
 Reference value :  8.41537e-06
 Reference value :  8.50000e-06
 Reference value :  8.50001e-06
 Reference value :  8.50003e-06
 Reference value :  8.50007e-06
 Reference value :  8.50010e-06
 Reference value :  8.50010e-06
 Reference value :  8.50011e-06
 Reference value :  8.50013e-06
 Reference value :  8.50016e-06
 Reference value :  8.50023e-06
 Reference value :  8.50037e-06
 Reference value :  8.50064e-06
 Reference value :  8.50112e-06
 Reference value :  8.50178e-06
 Reference value :  8.50246e-06
 Reference value :  8.50309e-06
 Reference value :  8.50384e-06
 Reference value :  8.50451e-06
 Reference value :  8.50531e-06
 Reference value :  8.50617e-06
 Reference value :  8.50713e-06
 Reference value :  8.50861e-06
 Reference value :  8.51022e-06
 Reference value :  8.51166e-06
 Reference value :  8.51315e-06
 Reference value :  8.51507e-06
 Reference value :  8.51767e-06
 Reference value :  8.52055e-06
 Reference value :  8.52632e-06
 Reference value :  8.53191e-06
 Reference value :  8.53715e-06
 Reference value :  8.54100e-06
 Reference value :  8.54464e-06
 Reference value :  8.54781e-06
 Reference value :  8.55017e-06
 Reference value :  8.55268e-06
 Reference value :  8.55516e-06
 Reference value :  8.55756e-06
 Reference value :  8.56065e-06
 Reference value :  8.56268e-06
 Reference value :  8.56460e-06
 Reference value :  8.56638e-06
 Reference value :  8.56822e-06
 Reference value :  8.57102e-06
 Reference value :  8.57448e-06
 Reference value :  8.57906e-06
 Reference value :  8.58363e-06
 Reference value :  8.58941e-06
 Reference value :  8.59592e-06
 Reference value :  8.62085e-06
 Reference value :  8.68420e-06
 Reference value :  8.75010e-06
 Reference value :  8.75011e-06
 Reference value :  8.75017e-06
 Reference value :  8.75020e-06
 Reference value :  8.75020e-06
 Reference value :  8.75021e-06
 Reference value :  8.75021e-06
 Reference value :  8.75022e-06
 Reference value :  8.75025e-06
 Reference value :  8.75029e-06
 Reference value :  8.75039e-06
 Reference value :  8.75057e-06
 Reference value :  8.75094e-06
 Reference value :  8.75162e-06
 Reference value :  8.75222e-06
 Reference value :  8.75288e-06
 Reference value :  8.75357e-06
 Reference value :  8.75445e-06
 Reference value :  8.75517e-06
 Reference value :  8.75599e-06
 Reference value :  8.75686e-06
 Reference value :  8.75776e-06
 Reference value :  8.75890e-06
 Reference value :  8.76089e-06
 Reference value :  8.76346e-06
 Reference value :  8.76654e-06
 Reference value :  8.77097e-06
 Reference value :  8.79216e-06
 Reference value :  8.81877e-06
 Reference value :  8.87200e-06
 Reference value :  8.95522e-06
 Reference value :  9.00000e-06
No. of Data Rows : 1442
ngspice-44 done
