
Note: Compatibility modes selected: hs a


Circuit: ** sch_path: /home/madra/cace/sar-adc-using-sky130-pdk/runs/run_2025-09-01_18-39-40/parameters/inl/run_3/sar_output.sch

option SCALE: Scale is set to 1e-06 for instance and model parameters
option SCALE: Scale is set to 1e-06 for instance and model parameters
option SCALE: Scale is set to 1e-06 for instance and model parameters
option SCALE: Scale is set to 1e-06 for instance and model parameters
Doing analysis at TEMP = 27.000000 and TNOM = 27.000000

Using KLU as Direct Linear Solver
Operating point simulation skipped by 'uic',
  now using transient initial conditions.
 Reference value :  1.00000e-12
 Reference value :  1.08400e-12
 Reference value :  1.69495e-12
 Reference value :  4.37816e-12
 Reference value :  1.98689e-11
 Reference value :  1.00000e-10
 Reference value :  1.35254e-10
 Reference value :  2.56123e-10
 Reference value :  6.76691e-10
 Reference value :  1.39185e-09
 Reference value :  2.47484e-09
 Reference value :  4.15994e-09
 Reference value :  6.10438e-09
 Reference value :  6.76443e-09
 Reference value :  8.14991e-09
 Reference value :  1.11328e-08
 Reference value :  1.20440e-08
 Reference value :  1.37277e-08
 Reference value :  1.88743e-08
 Reference value :  2.64799e-08
 Reference value :  3.95434e-08
 Reference value :  6.51116e-08
 Reference value :  2.50100e-07
 Reference value :  2.50170e-07
 Reference value :  2.50223e-07
 Reference value :  2.50405e-07
 Reference value :  2.51019e-07
 Reference value :  2.51835e-07
 Reference value :  2.53670e-07
 Reference value :  2.54843e-07
 Reference value :  2.57097e-07
 Reference value :  2.59976e-07
 Reference value :  2.85969e-07
 Reference value :  5.00000e-07
 Reference value :  5.00070e-07
 Reference value :  5.00156e-07
 Reference value :  5.00518e-07
 Reference value :  5.01310e-07
 Reference value :  5.02775e-07
 Reference value :  5.03934e-07
 Reference value :  5.06430e-07
 Reference value :  5.07724e-07
 Reference value :  5.10005e-07
 Reference value :  5.12475e-07
 Reference value :  5.13774e-07
 Reference value :  5.17448e-07
 Reference value :  5.27675e-07
 Reference value :  5.74411e-07
 Reference value :  7.50110e-07
 Reference value :  7.50200e-07
 Reference value :  7.50255e-07
 Reference value :  7.50597e-07
 Reference value :  7.51700e-07
 Reference value :  7.53493e-07
 Reference value :  7.54593e-07
 Reference value :  7.55913e-07
 Reference value :  7.59789e-07
 Reference value :  7.87824e-07
 Reference value :  9.70185e-07
 Reference value :  1.00007e-06
 Reference value :  1.00011e-06
 Reference value :  1.00034e-06
 Reference value :  1.00131e-06
 Reference value :  1.00231e-06
 Reference value :  1.00333e-06
 Reference value :  1.00449e-06
 Reference value :  1.00586e-06
 Reference value :  1.00855e-06
 Reference value :  1.01010e-06
 Reference value :  1.01153e-06
 Reference value :  1.01280e-06
 Reference value :  1.01379e-06
 Reference value :  1.01587e-06
 Reference value :  1.01802e-06
 Reference value :  1.02096e-06
 Reference value :  1.03640e-06
 Reference value :  1.04783e-06
 Reference value :  1.05368e-06
 Reference value :  1.05765e-06
 Reference value :  1.06679e-06
 Reference value :  1.07711e-06
 Reference value :  1.09718e-06
 Reference value :  1.16492e-06
 Reference value :  1.25011e-06
 Reference value :  1.25020e-06
 Reference value :  1.25032e-06
 Reference value :  1.25083e-06
 Reference value :  1.25214e-06
 Reference value :  1.25346e-06
 Reference value :  1.25453e-06
 Reference value :  1.25585e-06
 Reference value :  1.25984e-06
 Reference value :  1.27464e-06
 Reference value :  1.38554e-06
 Reference value :  1.50003e-06
 Reference value :  1.50011e-06
 Reference value :  1.50022e-06
 Reference value :  1.50052e-06
 Reference value :  1.50131e-06
 Reference value :  1.50223e-06
 Reference value :  1.50322e-06
 Reference value :  1.50442e-06
 Reference value :  1.50605e-06
 Reference value :  1.50671e-06
 Reference value :  1.50832e-06
 Reference value :  1.51031e-06
 Reference value :  1.52623e-06
 Reference value :  1.64171e-06
 Reference value :  1.75013e-06
 Reference value :  1.75021e-06
 Reference value :  1.75044e-06
 Reference value :  1.75126e-06
 Reference value :  1.75270e-06
 Reference value :  1.75401e-06
 Reference value :  1.75598e-06
 Reference value :  1.75765e-06
 Reference value :  1.76167e-06
 Reference value :  1.78023e-06
 Reference value :  1.85374e-06
 Reference value :  2.00001e-06
 Reference value :  2.00010e-06
 Reference value :  2.00016e-06
 Reference value :  2.00052e-06
 Reference value :  2.00131e-06
 Reference value :  2.00231e-06
 Reference value :  2.00278e-06
 Reference value :  2.00334e-06
 Reference value :  2.00457e-06
 Reference value :  2.00582e-06
 Reference value :  2.00834e-06
 Reference value :  2.01047e-06
 Reference value :  2.01155e-06
 Reference value :  2.01351e-06
 Reference value :  2.01529e-06
 Reference value :  2.01725e-06
 Reference value :  2.01959e-06
 Reference value :  2.02752e-06
 Reference value :  2.07202e-06
 Reference value :  2.19513e-06
 Reference value :  2.25011e-06
 Reference value :  2.25020e-06
 Reference value :  2.25026e-06
 Reference value :  2.25044e-06
 Reference value :  2.25126e-06
 Reference value :  2.25214e-06
 Reference value :  2.25350e-06
 Reference value :  2.25401e-06
 Reference value :  2.25523e-06
 Reference value :  2.25596e-06
 Reference value :  2.25827e-06
 Reference value :  2.26304e-06
 Reference value :  2.29337e-06
 Reference value :  2.39373e-06
 Reference value :  2.50003e-06
 Reference value :  2.50011e-06
 Reference value :  2.50016e-06
 Reference value :  2.50034e-06
 Reference value :  2.50086e-06
 Reference value :  2.50175e-06
 Reference value :  2.50268e-06
 Reference value :  2.50322e-06
 Reference value :  2.50442e-06
 Reference value :  2.50522e-06
 Reference value :  2.50671e-06
 Reference value :  2.50832e-06
 Reference value :  2.51385e-06
 Reference value :  2.57441e-06
 Reference value :  2.75011e-06
 Reference value :  2.75017e-06
 Reference value :  2.75021e-06
 Reference value :  2.75026e-06
 Reference value :  2.75044e-06
 Reference value :  2.75083e-06
 Reference value :  2.75126e-06
 Reference value :  2.75214e-06
 Reference value :  2.75350e-06
 Reference value :  2.75401e-06
 Reference value :  2.75598e-06
 Reference value :  2.75764e-06
 Reference value :  2.76165e-06
 Reference value :  2.77221e-06
 Reference value :  2.81653e-06
 Reference value :  3.00000e-06
 Reference value :  3.00007e-06
 Reference value :  3.00012e-06
 Reference value :  3.00022e-06
 Reference value :  3.00086e-06
 Reference value :  3.00182e-06
 Reference value :  3.00278e-06
 Reference value :  3.00334e-06
 Reference value :  3.00457e-06
 Reference value :  3.00582e-06
 Reference value :  3.00733e-06
 Reference value :  3.00943e-06
 Reference value :  3.01155e-06
 Reference value :  3.01351e-06
 Reference value :  3.01529e-06
 Reference value :  3.01839e-06
 Reference value :  3.02344e-06
 Reference value :  3.04164e-06
 Reference value :  3.05382e-06
 Reference value :  3.06341e-06
 Reference value :  3.07138e-06
 Reference value :  3.07536e-06
 Reference value :  3.07875e-06
 Reference value :  3.08848e-06
 Reference value :  3.10102e-06
 Reference value :  3.12761e-06
 Reference value :  3.22106e-06
 Reference value :  3.25011e-06
 Reference value :  3.25017e-06
 Reference value :  3.25022e-06
 Reference value :  3.25045e-06
 Reference value :  3.25127e-06
 Reference value :  3.25216e-06
 Reference value :  3.25352e-06
 Reference value :  3.25463e-06
 Reference value :  3.25600e-06
 Reference value :  3.26020e-06
 Reference value :  3.29466e-06
 Reference value :  3.50001e-06
 Reference value :  3.50010e-06
 Reference value :  3.50016e-06
 Reference value :  3.50052e-06
 Reference value :  3.50131e-06
 Reference value :  3.50278e-06
 Reference value :  3.50391e-06
 Reference value :  3.50549e-06
 Reference value :  3.50715e-06
 Reference value :  3.50887e-06
 Reference value :  3.51093e-06
 Reference value :  3.51801e-06
 Reference value :  3.55268e-06
 Reference value :  3.65971e-06
 Reference value :  3.75011e-06
 Reference value :  3.75020e-06
 Reference value :  3.75026e-06
 Reference value :  3.75045e-06
 Reference value :  3.75084e-06
 Reference value :  3.75171e-06
 Reference value :  3.75273e-06
 Reference value :  3.75351e-06
 Reference value :  3.75402e-06
 Reference value :  3.75527e-06
 Reference value :  3.75689e-06
 Reference value :  3.76020e-06
 Reference value :  3.77712e-06
 Reference value :  3.88486e-06
 Reference value :  4.00003e-06
 Reference value :  4.00010e-06
 Reference value :  4.00016e-06
 Reference value :  4.00034e-06
 Reference value :  4.00131e-06
 Reference value :  4.00278e-06
 Reference value :  4.00332e-06
 Reference value :  4.00449e-06
 Reference value :  4.00586e-06
 Reference value :  4.00748e-06
 Reference value :  4.01007e-06
 Reference value :  4.01152e-06
 Reference value :  4.01392e-06
 Reference value :  4.01606e-06
 Reference value :  4.01712e-06
 Reference value :  4.01941e-06
 Reference value :  4.02116e-06
 Reference value :  4.02628e-06
 Reference value :  4.03064e-06
 Reference value :  4.04187e-06
 Reference value :  4.04744e-06
 Reference value :  4.05184e-06
 Reference value :  4.06234e-06
 Reference value :  4.07478e-06
 Reference value :  4.09033e-06
 Reference value :  4.18196e-06
 Reference value :  4.25011e-06
 Reference value :  4.25017e-06
 Reference value :  4.25021e-06
 Reference value :  4.25026e-06
 Reference value :  4.25054e-06
 Reference value :  4.25099e-06
 Reference value :  4.25194e-06
 Reference value :  4.25312e-06
 Reference value :  4.25380e-06
 Reference value :  4.25442e-06
 Reference value :  4.25569e-06
 Reference value :  4.25767e-06
 Reference value :  4.26600e-06
 Reference value :  4.31881e-06
 Reference value :  4.50000e-06
 Reference value :  4.50007e-06
 Reference value :  4.50012e-06
 Reference value :  4.50035e-06
 Reference value :  4.50093e-06
 Reference value :  4.50196e-06
 Reference value :  4.50243e-06
 Reference value :  4.50347e-06
 Reference value :  4.50471e-06
 Reference value :  4.50648e-06
 Reference value :  4.50836e-06
 Reference value :  4.50928e-06
 Reference value :  4.51137e-06
 Reference value :  4.51876e-06
 Reference value :  4.60308e-06
 Reference value :  4.75011e-06
 Reference value :  4.75020e-06
 Reference value :  4.75026e-06
 Reference value :  4.75054e-06
 Reference value :  4.75147e-06
 Reference value :  4.75245e-06
 Reference value :  4.75382e-06
 Reference value :  4.75503e-06
 Reference value :  4.75643e-06
 Reference value :  4.75808e-06
 Reference value :  4.76025e-06
 Reference value :  4.76721e-06
 Reference value :  4.79468e-06
 Reference value :  4.92046e-06
 Reference value :  5.00001e-06
 Reference value :  5.00007e-06
 Reference value :  5.00012e-06
 Reference value :  5.00022e-06
 Reference value :  5.00059e-06
 Reference value :  5.00145e-06
 Reference value :  5.00245e-06
 Reference value :  5.00350e-06
 Reference value :  5.00459e-06
 Reference value :  5.00583e-06
 Reference value :  5.00731e-06
 Reference value :  5.00970e-06
 Reference value :  5.01066e-06
 Reference value :  5.01294e-06
 Reference value :  5.01378e-06
 Reference value :  5.01554e-06
 Reference value :  5.01870e-06
 Reference value :  5.02438e-06
 Reference value :  5.03137e-06
 Reference value :  5.03975e-06
 Reference value :  5.04537e-06
 Reference value :  5.06356e-06
 Reference value :  5.14196e-06
 Reference value :  5.25013e-06
 Reference value :  5.25021e-06
 Reference value :  5.25032e-06
 Reference value :  5.25071e-06
 Reference value :  5.25193e-06
 Reference value :  5.25309e-06
 Reference value :  5.25435e-06
 Reference value :  5.25556e-06
 Reference value :  5.25718e-06
 Reference value :  5.27013e-06
 Reference value :  5.30249e-06
 Reference value :  5.50001e-06
 Reference value :  5.50010e-06
 Reference value :  5.50016e-06
 Reference value :  5.50035e-06
 Reference value :  5.50145e-06
 Reference value :  5.50297e-06
 Reference value :  5.50410e-06
 Reference value :  5.50569e-06
 Reference value :  5.50641e-06
 Reference value :  5.50828e-06
 Reference value :  5.51019e-06
 Reference value :  5.51125e-06
 Reference value :  5.51486e-06
 Reference value :  5.52701e-06
 Reference value :  5.57369e-06
 Reference value :  5.75011e-06
 Reference value :  5.75020e-06
 Reference value :  5.75025e-06
 Reference value :  5.75039e-06
 Reference value :  5.75074e-06
 Reference value :  5.75147e-06
 Reference value :  5.75311e-06
 Reference value :  5.75440e-06
 Reference value :  5.75566e-06
 Reference value :  5.75725e-06
 Reference value :  5.76455e-06
 Reference value :  5.80584e-06
 Reference value :  6.00001e-06
 Reference value :  6.00010e-06
 Reference value :  6.00016e-06
 Reference value :  6.00059e-06
 Reference value :  6.00145e-06
 Reference value :  6.00245e-06
 Reference value :  6.00349e-06
 Reference value :  6.00466e-06
 Reference value :  6.00588e-06
 Reference value :  6.00872e-06
 Reference value :  6.01186e-06
 Reference value :  6.01441e-06
 Reference value :  6.01633e-06
 Reference value :  6.02004e-06
 Reference value :  6.02481e-06
 Reference value :  6.03551e-06
 Reference value :  6.03948e-06
 Reference value :  6.04780e-06
 Reference value :  6.05776e-06
 Reference value :  6.07693e-06
 Reference value :  6.15507e-06
 Reference value :  6.25011e-06
 Reference value :  6.25020e-06
 Reference value :  6.25026e-06
 Reference value :  6.25054e-06
 Reference value :  6.25143e-06
 Reference value :  6.25309e-06
 Reference value :  6.25434e-06
 Reference value :  6.25641e-06
 Reference value :  6.26121e-06
 Reference value :  6.28320e-06
 Reference value :  6.50000e-06
 Reference value :  6.50003e-06
 Reference value :  6.50010e-06
 Reference value :  6.50016e-06
 Reference value :  6.50059e-06
 Reference value :  6.50196e-06
 Reference value :  6.50293e-06
 Reference value :  6.50347e-06
 Reference value :  6.50471e-06
 Reference value :  6.50648e-06
 Reference value :  6.50836e-06
 Reference value :  6.51026e-06
 Reference value :  6.51261e-06
 Reference value :  6.53773e-06
 Reference value :  6.75010e-06
 Reference value :  6.75017e-06
 Reference value :  6.75026e-06
 Reference value :  6.75054e-06
 Reference value :  6.75147e-06
 Reference value :  6.75311e-06
 Reference value :  6.75440e-06
 Reference value :  6.75567e-06
 Reference value :  6.75644e-06
 Reference value :  6.75808e-06
 Reference value :  6.76192e-06
 Reference value :  6.78095e-06
 Reference value :  6.85159e-06
 Reference value :  7.00001e-06
 Reference value :  7.00010e-06
 Reference value :  7.00016e-06
 Reference value :  7.00059e-06
 Reference value :  7.00145e-06
 Reference value :  7.00245e-06
 Reference value :  7.00350e-06
 Reference value :  7.00459e-06
 Reference value :  7.00646e-06
 Reference value :  7.00970e-06
 Reference value :  7.01066e-06
 Reference value :  7.01294e-06
 Reference value :  7.01456e-06
 Reference value :  7.01655e-06
 Reference value :  7.01746e-06
 Reference value :  7.01995e-06
 Reference value :  7.02872e-06
 Reference value :  7.06189e-06
 Reference value :  7.20153e-06
 Reference value :  7.25013e-06
 Reference value :  7.25021e-06
 Reference value :  7.25032e-06
 Reference value :  7.25071e-06
 Reference value :  7.25143e-06
 Reference value :  7.25241e-06
 Reference value :  7.25379e-06
 Reference value :  7.25495e-06
 Reference value :  7.25717e-06
 Reference value :  7.26996e-06
 Reference value :  7.42356e-06
 Reference value :  7.50003e-06
 Reference value :  7.50012e-06
 Reference value :  7.50035e-06
 Reference value :  7.50093e-06
 Reference value :  7.50196e-06
 Reference value :  7.50293e-06
 Reference value :  7.50347e-06
 Reference value :  7.50471e-06
 Reference value :  7.50648e-06
 Reference value :  7.50836e-06
 Reference value :  7.51026e-06
 Reference value :  7.51137e-06
 Reference value :  7.51872e-06
 Reference value :  7.55879e-06
 Reference value :  7.75010e-06
 Reference value :  7.75017e-06
 Reference value :  7.75022e-06
 Reference value :  7.75039e-06
 Reference value :  7.75099e-06
 Reference value :  7.75194e-06
 Reference value :  7.75311e-06
 Reference value :  7.75440e-06
 Reference value :  7.75643e-06
 Reference value :  7.75904e-06
 Reference value :  7.76405e-06
 Reference value :  7.79475e-06
 Reference value :  7.92104e-06
 Reference value :  8.00001e-06
 Reference value :  8.00007e-06
 Reference value :  8.00012e-06
 Reference value :  8.00022e-06
 Reference value :  8.00059e-06
 Reference value :  8.00093e-06
 Reference value :  8.00145e-06
 Reference value :  8.00245e-06
 Reference value :  8.00350e-06
 Reference value :  8.00459e-06
 Reference value :  8.00583e-06
 Reference value :  8.00731e-06
 Reference value :  8.00816e-06
 Reference value :  8.00898e-06
 Reference value :  8.01048e-06
 Reference value :  8.01422e-06
 Reference value :  8.02247e-06
 Reference value :  8.03527e-06
 Reference value :  8.05967e-06
 Reference value :  8.07717e-06
 Reference value :  8.08745e-06
 Reference value :  8.11412e-06
 Reference value :  8.15009e-06
 Reference value :  8.25010e-06
 Reference value :  8.25017e-06
 Reference value :  8.25022e-06
 Reference value :  8.25032e-06
 Reference value :  8.25060e-06
 Reference value :  8.25118e-06
 Reference value :  8.25160e-06
 Reference value :  8.25328e-06
 Reference value :  8.25503e-06
 Reference value :  8.25596e-06
 Reference value :  8.25852e-06
 Reference value :  8.26794e-06
 Reference value :  8.33492e-06
 Reference value :  8.50003e-06
 Reference value :  8.50012e-06
 Reference value :  8.50035e-06
 Reference value :  8.50143e-06
 Reference value :  8.50244e-06
 Reference value :  8.50357e-06
 Reference value :  8.50489e-06
 Reference value :  8.50714e-06
 Reference value :  8.51378e-06
 Reference value :  8.52616e-06
 Reference value :  8.53074e-06
 Reference value :  8.53820e-06
 Reference value :  8.54824e-06
 Reference value :  8.55762e-06
 Reference value :  8.59557e-06
 Reference value :  8.69938e-06
 Reference value :  8.75013e-06
 Reference value :  8.75022e-06
 Reference value :  8.75044e-06
 Reference value :  8.75083e-06
 Reference value :  8.75170e-06
 Reference value :  8.75271e-06
 Reference value :  8.75348e-06
 Reference value :  8.75398e-06
 Reference value :  8.75521e-06
 Reference value :  8.75670e-06
 Reference value :  8.76296e-06
 Reference value :  8.79258e-06
 Reference value :  9.00000e-06
 Reference value :  9.00003e-06
 Reference value :  9.00011e-06
 Reference value :  9.00022e-06
 Reference value :  9.00052e-06
 Reference value :  9.00131e-06
 Reference value :  9.00231e-06
 Reference value :  9.00332e-06
 Reference value :  9.00454e-06
 Reference value :  9.00757e-06
 Reference value :  9.00985e-06
 Reference value :  9.01109e-06
 Reference value :  9.01367e-06
 Reference value :  9.01712e-06
 Reference value :  9.02259e-06
 Reference value :  9.04696e-06
 Reference value :  9.17233e-06
 Reference value :  9.25011e-06
 Reference value :  9.25017e-06
 Reference value :  9.25021e-06
 Reference value :  9.25032e-06
 Reference value :  9.25060e-06
 Reference value :  9.25126e-06
 Reference value :  9.25214e-06
 Reference value :  9.25349e-06
 Reference value :  9.25401e-06
 Reference value :  9.25526e-06
 Reference value :  9.25803e-06
 Reference value :  9.27728e-06
 Reference value :  9.38488e-06
 Reference value :  9.50003e-06
 Reference value :  9.50010e-06
 Reference value :  9.50016e-06
 Reference value :  9.50034e-06
 Reference value :  9.50086e-06
 Reference value :  9.50231e-06
 Reference value :  9.50332e-06
 Reference value :  9.50448e-06
 Reference value :  9.50585e-06
 Reference value :  9.50852e-06
 Reference value :  9.51005e-06
 Reference value :  9.51274e-06
 Reference value :  9.51468e-06
 Reference value :  9.51683e-06
 Reference value :  9.52061e-06
 Reference value :  9.53035e-06
 Reference value :  9.53597e-06
 Reference value :  9.55435e-06
 Reference value :  9.55859e-06
 Reference value :  9.56843e-06
 Reference value :  9.58060e-06
 Reference value :  9.60627e-06
 Reference value :  9.68275e-06
 Reference value :  9.75011e-06
 Reference value :  9.75020e-06
 Reference value :  9.75032e-06
 Reference value :  9.75083e-06
 Reference value :  9.75214e-06
 Reference value :  9.75346e-06
 Reference value :  9.75453e-06
 Reference value :  9.75585e-06
 Reference value :  9.75815e-06
 Reference value :  9.76671e-06
 Reference value :  9.82206e-06
 Reference value :  1.00000e-05
 Reference value :  1.00001e-05
 Reference value :  1.00002e-05
 Reference value :  1.00005e-05
 Reference value :  1.00013e-05
 Reference value :  1.00017e-05
 Reference value :  1.00027e-05
 Reference value :  1.00038e-05
 Reference value :  1.00052e-05
 Reference value :  1.00067e-05
 Reference value :  1.00083e-05
 Reference value :  1.00115e-05
 Reference value :  1.00259e-05
 Reference value :  1.01389e-05
 Reference value :  1.02502e-05
 Reference value :  1.02502e-05
 Reference value :  1.02503e-05
 Reference value :  1.02508e-05
 Reference value :  1.02521e-05
 Reference value :  1.02535e-05
 Reference value :  1.02546e-05
 Reference value :  1.02560e-05
 Reference value :  1.02577e-05
 Reference value :  1.02598e-05
 Reference value :  1.02668e-05
 Reference value :  1.02947e-05
 Reference value :  1.05000e-05
 Reference value :  1.05001e-05
 Reference value :  1.05002e-05
 Reference value :  1.05005e-05
 Reference value :  1.05018e-05
 Reference value :  1.05028e-05
 Reference value :  1.05039e-05
 Reference value :  1.05052e-05
 Reference value :  1.05065e-05
 Reference value :  1.05083e-05
 Reference value :  1.05105e-05
 Reference value :  1.05127e-05
 Reference value :  1.05143e-05
 Reference value :  1.05163e-05
 Reference value :  1.05184e-05
 Reference value :  1.05235e-05
 Reference value :  1.05729e-05
 Reference value :  1.06967e-05
 Reference value :  1.07501e-05
 Reference value :  1.07502e-05
 Reference value :  1.07503e-05
 Reference value :  1.07506e-05
 Reference value :  1.07517e-05
 Reference value :  1.07535e-05
 Reference value :  1.07546e-05
 Reference value :  1.07560e-05
 Reference value :  1.07601e-05
 Reference value :  1.07760e-05
 Reference value :  1.10000e-05
 Reference value :  1.10001e-05
 Reference value :  1.10001e-05
 Reference value :  1.10003e-05
 Reference value :  1.10013e-05
 Reference value :  1.10022e-05
 Reference value :  1.10032e-05
 Reference value :  1.10044e-05
 Reference value :  1.10060e-05
 Reference value :  1.10067e-05
 Reference value :  1.10083e-05
 Reference value :  1.10115e-05
 Reference value :  1.10417e-05
 Reference value :  1.12501e-05
 Reference value :  1.12502e-05
 Reference value :  1.12502e-05
 Reference value :  1.12504e-05
 Reference value :  1.12513e-05
 Reference value :  1.12527e-05
 Reference value :  1.12540e-05
 Reference value :  1.12560e-05
 Reference value :  1.12576e-05
 Reference value :  1.12598e-05
 Reference value :  1.12668e-05
 Reference value :  1.12946e-05
 Reference value :  1.14143e-05
 Reference value :  1.15000e-05
 Reference value :  1.15001e-05
 Reference value :  1.15002e-05
 Reference value :  1.15003e-05
 Reference value :  1.15013e-05
 Reference value :  1.15023e-05
 Reference value :  1.15028e-05
 Reference value :  1.15033e-05
 Reference value :  1.15046e-05
 Reference value :  1.15058e-05
 Reference value :  1.15083e-05
 Reference value :  1.15105e-05
 Reference value :  1.15115e-05
 Reference value :  1.15135e-05
 Reference value :  1.15153e-05
 Reference value :  1.15172e-05
 Reference value :  1.15193e-05
 Reference value :  1.15225e-05
 Reference value :  1.15358e-05
 Reference value :  1.15582e-05
 Reference value :  1.15685e-05
 Reference value :  1.15744e-05
 Reference value :  1.15863e-05
 Reference value :  1.16250e-05
 Reference value :  1.17451e-05
 Reference value :  1.17501e-05
 Reference value :  1.17502e-05
 Reference value :  1.17504e-05
 Reference value :  1.17513e-05
 Reference value :  1.17522e-05
 Reference value :  1.17535e-05
 Reference value :  1.17540e-05
 Reference value :  1.17560e-05
 Reference value :  1.17602e-05
 Reference value :  1.17768e-05
 Reference value :  1.20000e-05
 Reference value :  1.20001e-05
 Reference value :  1.20001e-05
 Reference value :  1.20002e-05
 Reference value :  1.20009e-05
 Reference value :  1.20023e-05
 Reference value :  1.20033e-05
 Reference value :  1.20045e-05
 Reference value :  1.20064e-05
 Reference value :  1.20071e-05
 Reference value :  1.20089e-05
 Reference value :  1.20109e-05
 Reference value :  1.20240e-05
 Reference value :  1.21567e-05
 Reference value :  1.22501e-05
 Reference value :  1.22502e-05
 Reference value :  1.22503e-05
 Reference value :  1.22506e-05
 Reference value :  1.22517e-05
 Reference value :  1.22535e-05
 Reference value :  1.22540e-05
 Reference value :  1.22553e-05
 Reference value :  1.22580e-05
 Reference value :  1.22677e-05
 Reference value :  1.22922e-05
 Reference value :  1.25000e-05
 Reference value :  1.25001e-05
 Reference value :  1.25001e-05
 Reference value :  1.25002e-05
 Reference value :  1.25005e-05
 Reference value :  1.25013e-05
 Reference value :  1.25023e-05
 Reference value :  1.25033e-05
 Reference value :  1.25045e-05
 Reference value :  1.25059e-05
 Reference value :  1.25075e-05
 Reference value :  1.25101e-05
 Reference value :  1.25115e-05
 Reference value :  1.25139e-05
 Reference value :  1.25161e-05
 Reference value :  1.25182e-05
 Reference value :  1.25211e-05
 Reference value :  1.25262e-05
 Reference value :  1.25360e-05
 Reference value :  1.25417e-05
 Reference value :  1.25515e-05
 Reference value :  1.25620e-05
 Reference value :  1.25682e-05
 Reference value :  1.25897e-05
 Reference value :  1.26677e-05
 Reference value :  1.27501e-05
 Reference value :  1.27502e-05
 Reference value :  1.27502e-05
 Reference value :  1.27503e-05
 Reference value :  1.27505e-05
 Reference value :  1.27510e-05
 Reference value :  1.27519e-05
 Reference value :  1.27531e-05
 Reference value :  1.27544e-05
 Reference value :  1.27557e-05
 Reference value :  1.27576e-05
 Reference value :  1.27657e-05
 Reference value :  1.28156e-05
 Reference value :  1.29837e-05
 Reference value :  1.30000e-05
 Reference value :  1.30001e-05
 Reference value :  1.30002e-05
 Reference value :  1.30003e-05
 Reference value :  1.30015e-05
 Reference value :  1.30024e-05
 Reference value :  1.30035e-05
 Reference value :  1.30041e-05
 Reference value :  1.30056e-05
 Reference value :  1.30065e-05
 Reference value :  1.30084e-05
 Reference value :  1.30103e-05
 Reference value :  1.30126e-05
 Reference value :  1.30255e-05
 Reference value :  1.31013e-05
 Reference value :  1.32501e-05
 Reference value :  1.32502e-05
 Reference value :  1.32502e-05
 Reference value :  1.32503e-05
 Reference value :  1.32504e-05
 Reference value :  1.32507e-05
 Reference value :  1.32515e-05
 Reference value :  1.32531e-05
 Reference value :  1.32544e-05
 Reference value :  1.32557e-05
 Reference value :  1.32564e-05
 Reference value :  1.32590e-05
 Reference value :  1.32641e-05
 Reference value :  1.32809e-05
 Reference value :  1.34205e-05
 Reference value :  1.35000e-05
 Reference value :  1.35001e-05
 Reference value :  1.35002e-05
 Reference value :  1.35009e-05
 Reference value :  1.35024e-05
 Reference value :  1.35035e-05
 Reference value :  1.35046e-05
 Reference value :  1.35065e-05
 Reference value :  1.35097e-05
 Reference value :  1.35118e-05
 Reference value :  1.35138e-05
 Reference value :  1.35156e-05
 Reference value :  1.35174e-05
 Reference value :  1.35195e-05
 Reference value :  1.35270e-05
 Reference value :  1.35353e-05
 Reference value :  1.35393e-05
 Reference value :  1.35452e-05
 Reference value :  1.35479e-05
 Reference value :  1.35556e-05
 Reference value :  1.35799e-05
 Reference value :  1.36491e-05
 Reference value :  1.37501e-05
 Reference value :  1.37502e-05
 Reference value :  1.37502e-05
 Reference value :  1.37503e-05
 Reference value :  1.37504e-05
 Reference value :  1.37507e-05
 Reference value :  1.37514e-05
 Reference value :  1.37524e-05
 Reference value :  1.37543e-05
 Reference value :  1.37563e-05
 Reference value :  1.37642e-05
 Reference value :  1.38406e-05
 Reference value :  1.40000e-05
 Reference value :  1.40001e-05
 Reference value :  1.40001e-05
 Reference value :  1.40003e-05
 Reference value :  1.40009e-05
 Reference value :  1.40020e-05
 Reference value :  1.40024e-05
 Reference value :  1.40035e-05
 Reference value :  1.40049e-05
 Reference value :  1.40064e-05
 Reference value :  1.40083e-05
 Reference value :  1.40113e-05
 Reference value :  1.40269e-05
 Reference value :  1.41329e-05
 Reference value :  1.42501e-05
 Reference value :  1.42502e-05
 Reference value :  1.42503e-05
 Reference value :  1.42507e-05
 Reference value :  1.42519e-05
 Reference value :  1.42531e-05
 Reference value :  1.42544e-05
 Reference value :  1.42564e-05
 Reference value :  1.42645e-05
 Reference value :  1.43503e-05
 Reference value :  1.45000e-05
 Reference value :  1.45001e-05
 Reference value :  1.45002e-05
 Reference value :  1.45006e-05
 Reference value :  1.45020e-05
 Reference value :  1.45030e-05
 Reference value :  1.45035e-05
 Reference value :  1.45047e-05
 Reference value :  1.45066e-05
 Reference value :  1.45087e-05
 Reference value :  1.45119e-05
 Reference value :  1.45134e-05
 Reference value :  1.45144e-05
 Reference value :  1.45163e-05
 Reference value :  1.45200e-05
 Reference value :  1.45301e-05
 Reference value :  1.45353e-05
 Reference value :  1.45433e-05
 Reference value :  1.45522e-05
 Reference value :  1.45696e-05
 Reference value :  1.46287e-05
 Reference value :  1.47501e-05
 Reference value :  1.47502e-05
 Reference value :  1.47502e-05
 Reference value :  1.47504e-05
 Reference value :  1.47510e-05
 Reference value :  1.47524e-05
 Reference value :  1.47538e-05
 Reference value :  1.47550e-05
 Reference value :  1.47564e-05
 Reference value :  1.47612e-05
 Reference value :  1.48042e-05
 Reference value :  1.50000e-05
 Reference value :  1.50001e-05
 Reference value :  1.50002e-05
 Reference value :  1.50006e-05
 Reference value :  1.50015e-05
 Reference value :  1.50024e-05
 Reference value :  1.50035e-05
 Reference value :  1.50047e-05
 Reference value :  1.50065e-05
 Reference value :  1.50084e-05
 Reference value :  1.50103e-05
 Reference value :  1.50126e-05
 Reference value :  1.50255e-05
 Reference value :  1.50587e-05
 Reference value :  1.52501e-05
 Reference value :  1.52502e-05
 Reference value :  1.52502e-05
 Reference value :  1.52504e-05
 Reference value :  1.52510e-05
 Reference value :  1.52519e-05
 Reference value :  1.52531e-05
 Reference value :  1.52544e-05
 Reference value :  1.52557e-05
 Reference value :  1.52573e-05
 Reference value :  1.52603e-05
 Reference value :  1.52729e-05
 Reference value :  1.53516e-05
 Reference value :  1.55013e-05
 Reference value :  1.55052e-05
 Reference value :  1.55077e-05
 Reference value :  1.55101e-05
 Reference value :  1.55111e-05
 Reference value :  1.55133e-05
 Reference value :  1.55149e-05
 Reference value :  1.55158e-05
 Reference value :  1.55177e-05
 Reference value :  1.55201e-05
 Reference value :  1.55332e-05
 Reference value :  1.56266e-05
 Reference value :  1.57501e-05
 Reference value :  1.57502e-05
 Reference value :  1.57503e-05
 Reference value :  1.57504e-05
 Reference value :  1.57509e-05
 Reference value :  1.57515e-05
 Reference value :  1.57524e-05
 Reference value :  1.57537e-05
 Reference value :  1.57542e-05
 Reference value :  1.57555e-05
 Reference value :  1.57562e-05
 Reference value :  1.57606e-05
 Reference value :  1.57790e-05
 Reference value :  1.58776e-05
 Reference value :  1.60000e-05
 Reference value :  1.60001e-05
 Reference value :  1.60002e-05
 Reference value :  1.60006e-05
 Reference value :  1.60015e-05
 Reference value :  1.60024e-05
 Reference value :  1.60035e-05
 Reference value :  1.60047e-05
 Reference value :  1.60065e-05
 Reference value :  1.60084e-05
 Reference value :  1.60103e-05
 Reference value :  1.60114e-05
 Reference value :  1.60151e-05
 Reference value :  1.60376e-05
 Reference value :  1.61848e-05
 Reference value :  1.62501e-05
 Reference value :  1.62502e-05
 Reference value :  1.62503e-05
 Reference value :  1.62504e-05
 Reference value :  1.62507e-05
 Reference value :  1.62515e-05
 Reference value :  1.62524e-05
 Reference value :  1.62531e-05
 Reference value :  1.62544e-05
 Reference value :  1.62557e-05
 Reference value :  1.62564e-05
 Reference value :  1.62581e-05
 Reference value :  1.62603e-05
 Reference value :  1.62641e-05
 Reference value :  1.62729e-05
 Reference value :  1.63165e-05
 Reference value :  1.65000e-05
 Reference value :  1.65000e-05
 Reference value :  1.65001e-05
 Reference value :  1.65001e-05
 Reference value :  1.65002e-05
 Reference value :  1.65006e-05
 Reference value :  1.65009e-05
 Reference value :  1.65020e-05
 Reference value :  1.65024e-05
 Reference value :  1.65035e-05
 Reference value :  1.65046e-05
 Reference value :  1.65065e-05
 Reference value :  1.65082e-05
 Reference value :  1.65097e-05
 Reference value :  1.65114e-05
 Reference value :  1.65167e-05
 Reference value :  1.65353e-05
 Reference value :  1.65597e-05
 Reference value :  1.65875e-05
 Reference value :  1.66141e-05
 Reference value :  1.66757e-05
 Reference value :  1.67501e-05
 Reference value :  1.67502e-05
 Reference value :  1.67503e-05
 Reference value :  1.67506e-05
 Reference value :  1.67516e-05
 Reference value :  1.67526e-05
 Reference value :  1.67540e-05
 Reference value :  1.67560e-05
 Reference value :  1.67585e-05
 Reference value :  1.67775e-05
 Reference value :  1.69115e-05
 Reference value :  1.70015e-05
 Reference value :  1.70045e-05
 Reference value :  1.70060e-05
 Reference value :  1.70093e-05
 Reference value :  1.70133e-05
 Reference value :  1.70205e-05
 Reference value :  1.70253e-05
 Reference value :  1.70287e-05
 Reference value :  1.70314e-05
 Reference value :  1.70338e-05
 Reference value :  1.70356e-05
 Reference value :  1.70387e-05
 Reference value :  1.70465e-05
 Reference value :  1.70663e-05
 Reference value :  1.71243e-05
 Reference value :  1.72501e-05
 Reference value :  1.72501e-05
 Reference value :  1.72502e-05
 Reference value :  1.72502e-05
 Reference value :  1.72504e-05
 Reference value :  1.72508e-05
 Reference value :  1.72517e-05
 Reference value :  1.72527e-05
 Reference value :  1.72534e-05
 Reference value :  1.72539e-05
 Reference value :  1.72551e-05
 Reference value :  1.72559e-05
 Reference value :  1.72599e-05
 Reference value :  1.72748e-05
 Reference value :  1.73865e-05
 Reference value :  1.75000e-05
 Reference value :  1.75001e-05
 Reference value :  1.75002e-05
 Reference value :  1.75009e-05
 Reference value :  1.75018e-05
 Reference value :  1.75033e-05
 Reference value :  1.75045e-05
 Reference value :  1.75064e-05
 Reference value :  1.75076e-05
 Reference value :  1.75099e-05
 Reference value :  1.75124e-05
 Reference value :  1.75137e-05
 Reference value :  1.75172e-05
 Reference value :  1.75271e-05
 Reference value :  1.75693e-05
 Reference value :  1.77501e-05
 Reference value :  1.77502e-05
 Reference value :  1.77502e-05
 Reference value :  1.77504e-05
 Reference value :  1.77513e-05
 Reference value :  1.77521e-05
 Reference value :  1.77535e-05
 Reference value :  1.77546e-05
 Reference value :  1.77569e-05
 Reference value :  1.77627e-05
 Reference value :  1.77927e-05
 Reference value :  1.80000e-05
 Reference value :  1.80021e-05
 Reference value :  1.80084e-05
 Reference value :  1.80121e-05
 Reference value :  1.80134e-05
 Reference value :  1.80159e-05
 Reference value :  1.80187e-05
 Reference value :  1.80253e-05
 Reference value :  1.80361e-05
 Reference value :  1.80472e-05
 Reference value :  1.80567e-05
 Reference value :  1.80707e-05
 Reference value :  1.80817e-05
 Reference value :  1.81099e-05
 Reference value :  1.82157e-05
 Reference value :  1.82501e-05
 Reference value :  1.82502e-05
 Reference value :  1.82503e-05
 Reference value :  1.82508e-05
 Reference value :  1.82517e-05
 Reference value :  1.82526e-05
 Reference value :  1.82536e-05
 Reference value :  1.82546e-05
 Reference value :  1.82559e-05
 Reference value :  1.82600e-05
 Reference value :  1.82669e-05
 Reference value :  1.83245e-05
 Reference value :  1.85000e-05
 Reference value :  1.85001e-05
 Reference value :  1.85002e-05
 Reference value :  1.85009e-05
 Reference value :  1.85017e-05
 Reference value :  1.85027e-05
 Reference value :  1.85032e-05
 Reference value :  1.85044e-05
 Reference value :  1.85052e-05
 Reference value :  1.85067e-05
 Reference value :  1.85083e-05
 Reference value :  1.85103e-05
 Reference value :  1.85176e-05
 Reference value :  1.85699e-05
 Reference value :  1.87501e-05
 Reference value :  1.87501e-05
 Reference value :  1.87502e-05
 Reference value :  1.87503e-05
 Reference value :  1.87506e-05
 Reference value :  1.87513e-05
 Reference value :  1.87522e-05
 Reference value :  1.87535e-05
 Reference value :  1.87540e-05
 Reference value :  1.87553e-05
 Reference value :  1.87560e-05
 Reference value :  1.87568e-05
 Reference value :  1.87587e-05
 Reference value :  1.87617e-05
 Reference value :  1.87722e-05
 Reference value :  1.88531e-05
 Reference value :  1.90000e-05
 Reference value :  1.90001e-05
 Reference value :  1.90001e-05
 Reference value :  1.90003e-05
 Reference value :  1.90009e-05
 Reference value :  1.90018e-05
 Reference value :  1.90033e-05
 Reference value :  1.90046e-05
 Reference value :  1.90058e-05
 Reference value :  1.90083e-05
 Reference value :  1.90105e-05
 Reference value :  1.90115e-05
 Reference value :  1.90135e-05
 Reference value :  1.90153e-05
 Reference value :  1.90184e-05
 Reference value :  1.90235e-05
 Reference value :  1.90474e-05
 Reference value :  1.91124e-05
 Reference value :  1.92343e-05
 Reference value :  1.92501e-05
 Reference value :  1.92502e-05
 Reference value :  1.92503e-05
 Reference value :  1.92508e-05
 Reference value :  1.92517e-05
 Reference value :  1.92535e-05
 Reference value :  1.92546e-05
 Reference value :  1.92560e-05
 Reference value :  1.92601e-05
 Reference value :  1.92933e-05
 Reference value :  1.95000e-05
 Reference value :  1.95020e-05
 Reference value :  1.95080e-05
 Reference value :  1.95123e-05
 Reference value :  1.95162e-05
 Reference value :  1.95267e-05
 Reference value :  1.95844e-05
 Reference value :  1.97501e-05
 Reference value :  1.97502e-05
 Reference value :  1.97502e-05
 Reference value :  1.97503e-05
 Reference value :  1.97504e-05
 Reference value :  1.97508e-05
 Reference value :  1.97517e-05
 Reference value :  1.97527e-05
 Reference value :  1.97536e-05
 Reference value :  1.97547e-05
 Reference value :  1.97560e-05
 Reference value :  1.97588e-05
 Reference value :  1.97668e-05
 Reference value :  1.98221e-05
 Reference value :  2.00000e-05
 Reference value :  2.00001e-05
 Reference value :  2.00001e-05
 Reference value :  2.00003e-05
 Reference value :  2.00009e-05
 Reference value :  2.00018e-05
 Reference value :  2.00028e-05
 Reference value :  2.00033e-05
 Reference value :  2.00046e-05
 Reference value :  2.00058e-05
 Reference value :  2.00073e-05
 Reference value :  2.00094e-05
 Reference value :  2.00116e-05
 Reference value :  2.00127e-05
 Reference value :  2.00135e-05
 Reference value :  2.00153e-05
 Reference value :  2.00173e-05
 Reference value :  2.00196e-05
 Reference value :  2.00323e-05
 Reference value :  2.00539e-05
 Reference value :  2.00634e-05
 Reference value :  2.00713e-05
 Reference value :  2.00753e-05
 Reference value :  2.00824e-05
 Reference value :  2.00945e-05
 Reference value :  2.01275e-05
 Reference value :  2.01799e-05
 Reference value :  2.02501e-05
 Reference value :  2.02502e-05
 Reference value :  2.02502e-05
 Reference value :  2.02503e-05
 Reference value :  2.02506e-05
 Reference value :  2.02513e-05
 Reference value :  2.02522e-05
 Reference value :  2.02535e-05
 Reference value :  2.02546e-05
 Reference value :  2.02560e-05
 Reference value :  2.02583e-05
 Reference value :  2.02677e-05
 Reference value :  2.03263e-05
 Reference value :  2.05020e-05
 Reference value :  2.05081e-05
 Reference value :  2.05142e-05
 Reference value :  2.05265e-05
 Reference value :  2.05826e-05
 Reference value :  2.07501e-05
 Reference value :  2.07502e-05
 Reference value :  2.07503e-05
 Reference value :  2.07506e-05
 Reference value :  2.07517e-05
 Reference value :  2.07527e-05
 Reference value :  2.07536e-05
 Reference value :  2.07547e-05
 Reference value :  2.07560e-05
 Reference value :  2.07601e-05
 Reference value :  2.07760e-05
 Reference value :  2.08974e-05
 Reference value :  2.10000e-05
 Reference value :  2.10001e-05
 Reference value :  2.10002e-05
 Reference value :  2.10009e-05
 Reference value :  2.10023e-05
 Reference value :  2.10033e-05
 Reference value :  2.10045e-05
 Reference value :  2.10059e-05
 Reference value :  2.10085e-05
 Reference value :  2.10101e-05
 Reference value :  2.10129e-05
 Reference value :  2.10149e-05
 Reference value :  2.10171e-05
 Reference value :  2.10211e-05
 Reference value :  2.10305e-05
 Reference value :  2.10472e-05
 Reference value :  2.10561e-05
 Reference value :  2.10682e-05
 Reference value :  2.10898e-05
 Reference value :  2.11686e-05
 Reference value :  2.12501e-05
 Reference value :  2.12502e-05
 Reference value :  2.12503e-05
 Reference value :  2.12505e-05
 Reference value :  2.12515e-05
 Reference value :  2.12524e-05
 Reference value :  2.12538e-05
 Reference value :  2.12550e-05
 Reference value :  2.12576e-05
 Reference value :  2.12736e-05
 Reference value :  2.14836e-05
 Reference value :  2.15001e-05
 Reference value :  2.15002e-05
 Reference value :  2.15006e-05
 Reference value :  2.15009e-05
 Reference value :  2.15020e-05
 Reference value :  2.15029e-05
 Reference value :  2.15041e-05
 Reference value :  2.15056e-05
 Reference value :  2.15074e-05
 Reference value :  2.15093e-05
 Reference value :  2.15114e-05
 Reference value :  2.15187e-05
 Reference value :  2.15589e-05
 Reference value :  2.17501e-05
 Reference value :  2.17502e-05
 Reference value :  2.17503e-05
 Reference value :  2.17505e-05
 Reference value :  2.17515e-05
 Reference value :  2.17524e-05
 Reference value :  2.17538e-05
 Reference value :  2.17550e-05
 Reference value :  2.17564e-05
 Reference value :  2.17581e-05
 Reference value :  2.17619e-05
 Reference value :  2.17809e-05
 Reference value :  2.19205e-05
 Reference value :  2.20013e-05
 Reference value :  2.20052e-05
 Reference value :  2.20078e-05
 Reference value :  2.20103e-05
 Reference value :  2.20124e-05
 Reference value :  2.20144e-05
 Reference value :  2.20163e-05
 Reference value :  2.20195e-05
 Reference value :  2.20228e-05
 Reference value :  2.20292e-05
 Reference value :  2.20410e-05
 Reference value :  2.20443e-05
 Reference value :  2.20504e-05
 Reference value :  2.20674e-05
 Reference value :  2.21259e-05
 Reference value :  2.22501e-05
 Reference value :  2.22502e-05
 Reference value :  2.22502e-05
 Reference value :  2.22504e-05
 Reference value :  2.22507e-05
 Reference value :  2.22511e-05
 Reference value :  2.22519e-05
 Reference value :  2.22529e-05
 Reference value :  2.22543e-05
 Reference value :  2.22555e-05
 Reference value :  2.22571e-05
 Reference value :  2.22640e-05
 Reference value :  2.22796e-05
 Reference value :  2.23787e-05
 Reference value :  2.25000e-05
 Reference value :  2.25001e-05
 Reference value :  2.25002e-05
 Reference value :  2.25015e-05
 Reference value :  2.25024e-05
 Reference value :  2.25035e-05
 Reference value :  2.25057e-05
 Reference value :  2.25073e-05
 Reference value :  2.25092e-05
 Reference value :  2.25112e-05
 Reference value :  2.25190e-05
 Reference value :  2.25728e-05
 Reference value :  2.27501e-05
 Reference value :  2.27502e-05
 Reference value :  2.27503e-05
 Reference value :  2.27505e-05
 Reference value :  2.27515e-05
 Reference value :  2.27531e-05
 Reference value :  2.27544e-05
 Reference value :  2.27564e-05
 Reference value :  2.27612e-05
 Reference value :  2.27829e-05
 Reference value :  2.29398e-05
 Reference value :  2.30011e-05
 Reference value :  2.30044e-05
 Reference value :  2.30064e-05
 Reference value :  2.30082e-05
 Reference value :  2.30107e-05
 Reference value :  2.30120e-05
 Reference value :  2.30143e-05
 Reference value :  2.30164e-05
 Reference value :  2.30185e-05
 Reference value :  2.30228e-05
 Reference value :  2.30358e-05
 Reference value :  2.30436e-05
 Reference value :  2.30523e-05
 Reference value :  2.30634e-05
 Reference value :  2.30901e-05
 Reference value :  2.32029e-05
 Reference value :  2.32501e-05
 Reference value :  2.32502e-05
 Reference value :  2.32503e-05
 Reference value :  2.32505e-05
 Reference value :  2.32512e-05
 Reference value :  2.32519e-05
 Reference value :  2.32537e-05
 Reference value :  2.32548e-05
 Reference value :  2.32561e-05
 Reference value :  2.32604e-05
 Reference value :  2.32775e-05
 Reference value :  2.33731e-05
 Reference value :  2.35000e-05
 Reference value :  2.35001e-05
 Reference value :  2.35002e-05
 Reference value :  2.35006e-05
 Reference value :  2.35015e-05
 Reference value :  2.35024e-05
 Reference value :  2.35035e-05
 Reference value :  2.35047e-05
 Reference value :  2.35065e-05
 Reference value :  2.35093e-05
 Reference value :  2.35114e-05
 Reference value :  2.35187e-05
 Reference value :  2.35589e-05
 Reference value :  2.37501e-05
 Reference value :  2.37502e-05
 Reference value :  2.37503e-05
 Reference value :  2.37505e-05
 Reference value :  2.37515e-05
 Reference value :  2.37531e-05
 Reference value :  2.37544e-05
 Reference value :  2.37564e-05
 Reference value :  2.37590e-05
 Reference value :  2.37619e-05
 Reference value :  2.37729e-05
 Reference value :  2.38165e-05
 Reference value :  2.40000e-05
 Reference value :  2.40001e-05
 Reference value :  2.40002e-05
 Reference value :  2.40006e-05
 Reference value :  2.40015e-05
 Reference value :  2.40024e-05
 Reference value :  2.40035e-05
 Reference value :  2.40046e-05
 Reference value :  2.40058e-05
 Reference value :  2.40073e-05
 Reference value :  2.40097e-05
 Reference value :  2.40107e-05
 Reference value :  2.40118e-05
 Reference value :  2.40129e-05
 Reference value :  2.40138e-05
 Reference value :  2.40155e-05
 Reference value :  2.40175e-05
 Reference value :  2.40199e-05
 Reference value :  2.40243e-05
 Reference value :  2.40334e-05
 Reference value :  2.40924e-05
 Reference value :  2.42004e-05
 Reference value :  2.42501e-05
 Reference value :  2.42502e-05
 Reference value :  2.42502e-05
 Reference value :  2.42503e-05
 Reference value :  2.42504e-05
 Reference value :  2.42510e-05
 Reference value :  2.42519e-05
 Reference value :  2.42531e-05
 Reference value :  2.42543e-05
 Reference value :  2.42555e-05
 Reference value :  2.42563e-05
 Reference value :  2.42610e-05
 Reference value :  2.42814e-05
 Reference value :  2.44233e-05
 Reference value :  2.45000e-05
 Reference value :  2.45001e-05
 Reference value :  2.45001e-05
 Reference value :  2.45002e-05
 Reference value :  2.45003e-05
 Reference value :  2.45009e-05
 Reference value :  2.45020e-05
 Reference value :  2.45024e-05
 Reference value :  2.45035e-05
 Reference value :  2.45047e-05
 Reference value :  2.45056e-05
 Reference value :  2.45074e-05
 Reference value :  2.45093e-05
 Reference value :  2.45114e-05
 Reference value :  2.45187e-05
 Reference value :  2.45587e-05
 Reference value :  2.47501e-05
 Reference value :  2.47502e-05
 Reference value :  2.47503e-05
 Reference value :  2.47505e-05
 Reference value :  2.47515e-05
 Reference value :  2.47524e-05
 Reference value :  2.47538e-05
 Reference value :  2.47544e-05
 Reference value :  2.47564e-05
 Reference value :  2.47590e-05
 Reference value :  2.47619e-05
 Reference value :  2.47729e-05
 Reference value :  2.48165e-05
 Reference value :  2.50000e-05
 Reference value :  2.50001e-05
 Reference value :  2.50001e-05
 Reference value :  2.50002e-05
 Reference value :  2.50006e-05
 Reference value :  2.50015e-05
 Reference value :  2.50024e-05
 Reference value :  2.50035e-05
 Reference value :  2.50046e-05
 Reference value :  2.50058e-05
 Reference value :  2.50073e-05
 Reference value :  2.50090e-05
 Reference value :  2.50097e-05
 Reference value :  2.50114e-05
 Reference value :  2.50142e-05
 Reference value :  2.50225e-05
 Reference value :  2.50459e-05
 Reference value :  2.50597e-05
 Reference value :  2.50772e-05
 Reference value :  2.50875e-05
 Reference value :  2.51141e-05
 Reference value :  2.51501e-05
 Reference value :  2.52269e-05
 Reference value :  2.52501e-05
 Reference value :  2.52502e-05
 Reference value :  2.52502e-05
 Reference value :  2.52503e-05
 Reference value :  2.52504e-05
 Reference value :  2.52508e-05
 Reference value :  2.52516e-05
 Reference value :  2.52526e-05
 Reference value :  2.52540e-05
 Reference value :  2.52560e-05
 Reference value :  2.52585e-05
 Reference value :  2.52679e-05
 Reference value :  2.53349e-05
 Reference value :  2.55015e-05
 Reference value :  2.55060e-05
 Reference value :  2.55093e-05
 Reference value :  2.55133e-05
 Reference value :  2.55205e-05
 Reference value :  2.55253e-05
 Reference value :  2.55287e-05
 Reference value :  2.55314e-05
 Reference value :  2.55338e-05
 Reference value :  2.55371e-05
 Reference value :  2.55434e-05
 Reference value :  2.55539e-05
 Reference value :  2.55769e-05
 Reference value :  2.56598e-05
 Reference value :  2.57501e-05
 Reference value :  2.57502e-05
 Reference value :  2.57502e-05
 Reference value :  2.57503e-05
 Reference value :  2.57506e-05
 Reference value :  2.57513e-05
 Reference value :  2.57521e-05
 Reference value :  2.57534e-05
 Reference value :  2.57545e-05
 Reference value :  2.57559e-05
 Reference value :  2.57599e-05
 Reference value :  2.57748e-05
 Reference value :  2.60000e-05
 Reference value :  2.60001e-05
 Reference value :  2.60002e-05
 Reference value :  2.60005e-05
 Reference value :  2.60018e-05
 Reference value :  2.60033e-05
 Reference value :  2.60045e-05
 Reference value :  2.60075e-05
 Reference value :  2.60111e-05
 Reference value :  2.60137e-05
 Reference value :  2.60172e-05
 Reference value :  2.60272e-05
 Reference value :  2.60702e-05
 Reference value :  2.62501e-05
 Reference value :  2.62502e-05
 Reference value :  2.62503e-05
 Reference value :  2.62506e-05
 Reference value :  2.62517e-05
 Reference value :  2.62535e-05
 Reference value :  2.62546e-05
 Reference value :  2.62569e-05
 Reference value :  2.62627e-05
 Reference value :  2.62922e-05
 Reference value :  2.65000e-05
 Reference value :  2.65021e-05
 Reference value :  2.65063e-05
 Reference value :  2.65084e-05
 Reference value :  2.65105e-05
 Reference value :  2.65122e-05
 Reference value :  2.65136e-05
 Reference value :  2.65161e-05
 Reference value :  2.65189e-05
 Reference value :  2.65255e-05
 Reference value :  2.65353e-05
 Reference value :  2.65531e-05
 Reference value :  2.65619e-05
 Reference value :  2.65721e-05
 Reference value :  2.65839e-05
 Reference value :  2.66151e-05
 Reference value :  2.66696e-05
 Reference value :  2.67501e-05
 Reference value :  2.67501e-05
 Reference value :  2.67502e-05
 Reference value :  2.67502e-05
 Reference value :  2.67503e-05
 Reference value :  2.67506e-05
 Reference value :  2.67513e-05
 Reference value :  2.67521e-05
 Reference value :  2.67526e-05
 Reference value :  2.67536e-05
 Reference value :  2.67546e-05
 Reference value :  2.67559e-05
 Reference value :  2.67600e-05
 Reference value :  2.67916e-05
 Reference value :  2.70000e-05
 Reference value :  2.70001e-05
 Reference value :  2.70002e-05
 Reference value :  2.70003e-05
 Reference value :  2.70009e-05
 Reference value :  2.70017e-05
 Reference value :  2.70027e-05
 Reference value :  2.70038e-05
 Reference value :  2.70052e-05
 Reference value :  2.70067e-05
 Reference value :  2.70083e-05
 Reference value :  2.70115e-05
 Reference value :  2.70413e-05
 Reference value :  2.72501e-05
 Reference value :  2.72502e-05
 Reference value :  2.72502e-05
 Reference value :  2.72504e-05
 Reference value :  2.72513e-05
 Reference value :  2.72521e-05
 Reference value :  2.72535e-05
 Reference value :  2.72546e-05
 Reference value :  2.72560e-05
 Reference value :  2.72576e-05
 Reference value :  2.72616e-05
 Reference value :  2.72722e-05
 Reference value :  2.73532e-05
 Reference value :  2.75000e-05
 Reference value :  2.75001e-05
 Reference value :  2.75002e-05
 Reference value :  2.75005e-05
 Reference value :  2.75013e-05
 Reference value :  2.75023e-05
 Reference value :  2.75033e-05
 Reference value :  2.75052e-05
 Reference value :  2.75065e-05
 Reference value :  2.75083e-05
 Reference value :  2.75105e-05
 Reference value :  2.75115e-05
 Reference value :  2.75127e-05
 Reference value :  2.75135e-05
 Reference value :  2.75153e-05
 Reference value :  2.75173e-05
 Reference value :  2.75196e-05
 Reference value :  2.75276e-05
 Reference value :  2.75726e-05
 Reference value :  2.76603e-05
 Reference value :  2.76962e-05
 Reference value :  2.77501e-05
 Reference value :  2.77501e-05
 Reference value :  2.77502e-05
 Reference value :  2.77502e-05
 Reference value :  2.77504e-05
 Reference value :  2.77508e-05
 Reference value :  2.77517e-05
 Reference value :  2.77527e-05
 Reference value :  2.77535e-05
 Reference value :  2.77540e-05
 Reference value :  2.77552e-05
 Reference value :  2.77560e-05
 Reference value :  2.77583e-05
 Reference value :  2.77674e-05
 Reference value :  2.78258e-05
 Reference value :  2.80020e-05
 Reference value :  2.80060e-05
 Reference value :  2.80080e-05
 Reference value :  2.80123e-05
 Reference value :  2.80162e-05
 Reference value :  2.80267e-05
 Reference value :  2.80594e-05
 Reference value :  2.81250e-05
 Reference value :  2.82501e-05
 Reference value :  2.82502e-05
 Reference value :  2.82503e-05
 Reference value :  2.82508e-05
 Reference value :  2.82517e-05
 Reference value :  2.82527e-05
 Reference value :  2.82536e-05
 Reference value :  2.82547e-05
 Reference value :  2.82560e-05
 Reference value :  2.82588e-05
 Reference value :  2.82668e-05
 Reference value :  2.82972e-05
 Reference value :  2.85000e-05
 Reference value :  2.85000e-05
 Reference value :  2.85001e-05
 Reference value :  2.85002e-05
 Reference value :  2.85003e-05
 Reference value :  2.85009e-05
 Reference value :  2.85018e-05
 Reference value :  2.85028e-05
 Reference value :  2.85039e-05
 Reference value :  2.85052e-05
 Reference value :  2.85058e-05
 Reference value :  2.85073e-05
 Reference value :  2.85094e-05
 Reference value :  2.85116e-05
 Reference value :  2.85127e-05
 Reference value :  2.85135e-05
 Reference value :  2.85153e-05
 Reference value :  2.85173e-05
 Reference value :  2.85184e-05
 Reference value :  2.85215e-05
 Reference value :  2.85323e-05
 Reference value :  2.85539e-05
 Reference value :  2.85634e-05
 Reference value :  2.85713e-05
 Reference value :  2.85753e-05
 Reference value :  2.85824e-05
 Reference value :  2.85945e-05
 Reference value :  2.86499e-05
 Reference value :  2.87501e-05
 Reference value :  2.87502e-05
 Reference value :  2.87502e-05
 Reference value :  2.87503e-05
 Reference value :  2.87506e-05
 Reference value :  2.87513e-05
 Reference value :  2.87527e-05
 Reference value :  2.87540e-05
 Reference value :  2.87553e-05
 Reference value :  2.87568e-05
 Reference value :  2.87677e-05
 Reference value :  2.88900e-05
 Reference value :  2.90020e-05
 Reference value :  2.90081e-05
 Reference value :  2.90123e-05
 Reference value :  2.90189e-05
 Reference value :  2.90428e-05
 Reference value :  2.91219e-05
 Reference value :  2.92501e-05
 Reference value :  2.92502e-05
 Reference value :  2.92503e-05
 Reference value :  2.92508e-05
 Reference value :  2.92521e-05
 Reference value :  2.92532e-05
 Reference value :  2.92542e-05
 Reference value :  2.92552e-05
 Reference value :  2.92583e-05
 Reference value :  2.92760e-05
 Reference value :  2.93974e-05
 Reference value :  2.95000e-05
 Reference value :  2.95001e-05
 Reference value :  2.95002e-05
 Reference value :  2.95005e-05
 Reference value :  2.95013e-05
 Reference value :  2.95028e-05
 Reference value :  2.95039e-05
 Reference value :  2.95052e-05
 Reference value :  2.95065e-05
 Reference value :  2.95101e-05
 Reference value :  2.95129e-05
 Reference value :  2.95139e-05
 Reference value :  2.95161e-05
 Reference value :  2.95182e-05
 Reference value :  2.95228e-05
 Reference value :  2.95302e-05
 Reference value :  2.95413e-05
 Reference value :  2.95509e-05
 Reference value :  2.95554e-05
 Reference value :  2.95679e-05
 Reference value :  2.95893e-05
 Reference value :  2.96527e-05
 Reference value :  2.97501e-05
 Reference value :  2.97502e-05
 Reference value :  2.97502e-05
 Reference value :  2.97503e-05
 Reference value :  2.97504e-05
 Reference value :  2.97507e-05
 Reference value :  2.97515e-05
 Reference value :  2.97519e-05
 Reference value :  2.97531e-05
 Reference value :  2.97544e-05
 Reference value :  2.97557e-05
 Reference value :  2.97566e-05
 Reference value :  2.97617e-05
 Reference value :  2.97877e-05
 Reference value :  2.99842e-05
 Reference value :  3.00000e-05
 Reference value :  3.00001e-05
 Reference value :  3.00001e-05
 Reference value :  3.00002e-05
 Reference value :  3.00006e-05
 Reference value :  3.00015e-05
 Reference value :  3.00024e-05
 Reference value :  3.00035e-05
 Reference value :  3.00047e-05
 Reference value :  3.00056e-05
 Reference value :  3.00065e-05
 Reference value :  3.00084e-05
 Reference value :  3.00093e-05
 Reference value :  3.00114e-05
 Reference value :  3.00187e-05
 Reference value :  3.00588e-05
 Reference value :  3.01860e-05
 Reference value :  3.02501e-05
 Reference value :  3.02502e-05
 Reference value :  3.02503e-05
 Reference value :  3.02505e-05
 Reference value :  3.02515e-05
 Reference value :  3.02531e-05
 Reference value :  3.02544e-05
 Reference value :  3.02557e-05
 Reference value :  3.02573e-05
 Reference value :  3.02590e-05
 Reference value :  3.02641e-05
 Reference value :  3.02809e-05
 Reference value :  3.03510e-05
 Reference value :  3.05013e-05
 Reference value :  3.05052e-05
 Reference value :  3.05078e-05
 Reference value :  3.05103e-05
 Reference value :  3.05113e-05
 Reference value :  3.05136e-05
 Reference value :  3.05154e-05
 Reference value :  3.05174e-05
 Reference value :  3.05211e-05
 Reference value :  3.05293e-05
 Reference value :  3.05369e-05
 Reference value :  3.05443e-05
 Reference value :  3.05546e-05
 Reference value :  3.05800e-05
 Reference value :  3.06632e-05
 Reference value :  3.07501e-05
 Reference value :  3.07502e-05
 Reference value :  3.07503e-05
 Reference value :  3.07504e-05
 Reference value :  3.07509e-05
 Reference value :  3.07515e-05
 Reference value :  3.07524e-05
 Reference value :  3.07537e-05
 Reference value :  3.07543e-05
 Reference value :  3.07555e-05
 Reference value :  3.07563e-05
 Reference value :  3.07587e-05
 Reference value :  3.07695e-05
 Reference value :  3.07961e-05
 Reference value :  3.08787e-05
 Reference value :  3.10000e-05
 Reference value :  3.10000e-05
 Reference value :  3.10001e-05
 Reference value :  3.10002e-05
 Reference value :  3.10009e-05
 Reference value :  3.10020e-05
 Reference value :  3.10030e-05
 Reference value :  3.10041e-05
 Reference value :  3.10057e-05
 Reference value :  3.10073e-05
 Reference value :  3.10092e-05
 Reference value :  3.10112e-05
 Reference value :  3.10190e-05
 Reference value :  3.10728e-05
 Reference value :  3.12501e-05
 Reference value :  3.12502e-05
 Reference value :  3.12503e-05
 Reference value :  3.12505e-05
 Reference value :  3.12515e-05
 Reference value :  3.12531e-05
 Reference value :  3.12544e-05
 Reference value :  3.12564e-05
 Reference value :  3.12612e-05
 Reference value :  3.12829e-05
 Reference value :  3.14398e-05
 Reference value :  3.15000e-05
 Reference value :  3.15001e-05
 Reference value :  3.15002e-05
 Reference value :  3.15003e-05
 Reference value :  3.15009e-05
 Reference value :  3.15024e-05
 Reference value :  3.15035e-05
 Reference value :  3.15047e-05
 Reference value :  3.15066e-05
 Reference value :  3.15105e-05
 Reference value :  3.15119e-05
 Reference value :  3.15144e-05
 Reference value :  3.15163e-05
 Reference value :  3.15188e-05
 Reference value :  3.15248e-05
 Reference value :  3.15353e-05
 Reference value :  3.15393e-05
 Reference value :  3.15476e-05
 Reference value :  3.15575e-05
 Reference value :  3.15766e-05
 Reference value :  3.16290e-05
 Reference value :  3.17501e-05
 Reference value :  3.17502e-05
 Reference value :  3.17503e-05
 Reference value :  3.17505e-05
 Reference value :  3.17514e-05
 Reference value :  3.17524e-05
 Reference value :  3.17538e-05
 Reference value :  3.17543e-05
 Reference value :  3.17556e-05
 Reference value :  3.17573e-05
 Reference value :  3.17647e-05
 Reference value :  3.18043e-05
 Reference value :  3.20000e-05
 Reference value :  3.20000e-05
 Reference value :  3.20001e-05
 Reference value :  3.20001e-05
 Reference value :  3.20002e-05
 Reference value :  3.20006e-05
 Reference value :  3.20015e-05
 Reference value :  3.20024e-05
 Reference value :  3.20035e-05
 Reference value :  3.20047e-05
 Reference value :  3.20056e-05
 Reference value :  3.20065e-05
 Reference value :  3.20084e-05
 Reference value :  3.20093e-05
 Reference value :  3.20114e-05
 Reference value :  3.20255e-05
 Reference value :  3.21010e-05
 Reference value :  3.22501e-05
 Reference value :  3.22502e-05
 Reference value :  3.22502e-05
 Reference value :  3.22504e-05
 Reference value :  3.22510e-05
 Reference value :  3.22519e-05
 Reference value :  3.22531e-05
 Reference value :  3.22544e-05
 Reference value :  3.22557e-05
 Reference value :  3.22564e-05
 Reference value :  3.22590e-05
 Reference value :  3.22641e-05
 Reference value :  3.22948e-05
 Reference value :  3.25000e-05
 Reference value :  3.25001e-05
 Reference value :  3.25001e-05
 Reference value :  3.25003e-05
 Reference value :  3.25015e-05
 Reference value :  3.25024e-05
 Reference value :  3.25035e-05
 Reference value :  3.25046e-05
 Reference value :  3.25065e-05
 Reference value :  3.25097e-05
 Reference value :  3.25118e-05
 Reference value :  3.25129e-05
 Reference value :  3.25146e-05
 Reference value :  3.25155e-05
 Reference value :  3.25175e-05
 Reference value :  3.25199e-05
 Reference value :  3.25287e-05
 Reference value :  3.25616e-05
 Reference value :  3.27501e-05
 Reference value :  3.27502e-05
 Reference value :  3.27502e-05
 Reference value :  3.27503e-05
 Reference value :  3.27505e-05
 Reference value :  3.27510e-05
 Reference value :  3.27519e-05
 Reference value :  3.27531e-05
 Reference value :  3.27543e-05
 Reference value :  3.27555e-05
 Reference value :  3.27563e-05
 Reference value :  3.27588e-05
 Reference value :  3.27642e-05
 Reference value :  3.28017e-05
 Reference value :  3.30000e-05
 Reference value :  3.30000e-05
 Reference value :  3.30001e-05
 Reference value :  3.30002e-05
 Reference value :  3.30003e-05
 Reference value :  3.30009e-05
 Reference value :  3.30020e-05
 Reference value :  3.30024e-05
 Reference value :  3.30035e-05
 Reference value :  3.30047e-05
 Reference value :  3.30056e-05
 Reference value :  3.30065e-05
 Reference value :  3.30084e-05
 Reference value :  3.30093e-05
 Reference value :  3.30114e-05
 Reference value :  3.30151e-05
 Reference value :  3.30376e-05
 Reference value :  3.31853e-05
 Reference value :  3.32501e-05
 Reference value :  3.32502e-05
 Reference value :  3.32502e-05
 Reference value :  3.32503e-05
 Reference value :  3.32504e-05
 Reference value :  3.32507e-05
 Reference value :  3.32515e-05
 Reference value :  3.32519e-05
 Reference value :  3.32531e-05
 Reference value :  3.32544e-05
 Reference value :  3.32557e-05
 Reference value :  3.32564e-05
 Reference value :  3.32581e-05
 Reference value :  3.32603e-05
 Reference value :  3.32641e-05
 Reference value :  3.32809e-05
 Reference value :  3.33513e-05
 Reference value :  3.35013e-05
 Reference value :  3.35052e-05
 Reference value :  3.35065e-05
 Reference value :  3.35077e-05
 Reference value :  3.35101e-05
 Reference value :  3.35111e-05
 Reference value :  3.35122e-05
 Reference value :  3.35133e-05
 Reference value :  3.35155e-05
 Reference value :  3.35207e-05
 Reference value :  3.35302e-05
 Reference value :  3.35506e-05
 Reference value :  3.35634e-05
 Reference value :  3.35772e-05
 Reference value :  3.36040e-05
 Reference value :  3.36331e-05
 Reference value :  3.37395e-05
 Reference value :  3.37501e-05
 Reference value :  3.37502e-05
 Reference value :  3.37503e-05
 Reference value :  3.37506e-05
 Reference value :  3.37514e-05
 Reference value :  3.37529e-05
 Reference value :  3.37554e-05
 Reference value :  3.37591e-05
 Reference value :  3.37770e-05
 Reference value :  3.39001e-05
No. of Data Rows : 4793
ngspice-44 done
