
Note: Compatibility modes selected: hs a


Circuit: ** sch_path: /home/madra/cace/sar-adc-using-sky130-pdk/runs/run_2025-09-01_19-33-07/parameters/inl/run_4/sar_output.sch

option SCALE: Scale is set to 1e-06 for instance and model parameters
option SCALE: Scale is set to 1e-06 for instance and model parameters
option SCALE: Scale is set to 1e-06 for instance and model parameters
option SCALE: Scale is set to 1e-06 for instance and model parameters
Doing analysis at TEMP = 27.000000 and TNOM = 27.000000

Using KLU as Direct Linear Solver
Operating point simulation skipped by 'uic',
  now using transient initial conditions.
 Reference value :  1.00000e-12
 Reference value :  1.08400e-12
 Reference value :  2.21975e-12
 Reference value :  9.15931e-12
 Reference value :  5.63676e-11
 Reference value :  1.14694e-10
 Reference value :  2.51840e-10
 Reference value :  6.64375e-10
 Reference value :  1.36167e-09
 Reference value :  2.42625e-09
 Reference value :  4.10144e-09
 Reference value :  6.14838e-09
 Reference value :  7.61619e-09
 Reference value :  9.06834e-09
 Reference value :  1.10588e-08
 Reference value :  1.25207e-08
 Reference value :  1.41334e-08
 Reference value :  2.63783e-08
 Reference value :  4.08320e-08
 Reference value :  6.11188e-08
 Reference value :  1.35949e-07
 Reference value :  2.50110e-07
 Reference value :  2.50200e-07
 Reference value :  2.50253e-07
 Reference value :  2.50568e-07
 Reference value :  2.51400e-07
 Reference value :  2.53039e-07
 Reference value :  2.53668e-07
 Reference value :  2.54222e-07
 Reference value :  2.56166e-07
 Reference value :  2.59857e-07
 Reference value :  2.84649e-07
 Reference value :  4.22778e-07
 Reference value :  5.00030e-07
 Reference value :  5.00108e-07
 Reference value :  5.00345e-07
 Reference value :  5.01310e-07
 Reference value :  5.02312e-07
 Reference value :  5.03342e-07
 Reference value :  5.04594e-07
 Reference value :  5.07731e-07
 Reference value :  5.10014e-07
 Reference value :  5.11177e-07
 Reference value :  5.13779e-07
 Reference value :  5.17458e-07
 Reference value :  5.27687e-07
 Reference value :  5.74669e-07
 Reference value :  7.09106e-07
 Reference value :  7.50110e-07
 Reference value :  7.50170e-07
 Reference value :  7.50208e-07
 Reference value :  7.50255e-07
 Reference value :  7.50444e-07
 Reference value :  7.51257e-07
 Reference value :  7.52139e-07
 Reference value :  7.53493e-07
 Reference value :  7.54007e-07
 Reference value :  7.55255e-07
 Reference value :  7.55913e-07
 Reference value :  7.57880e-07
 Reference value :  7.67050e-07
 Reference value :  8.13886e-07
 Reference value :  1.00000e-06
 Reference value :  1.00003e-06
 Reference value :  1.00010e-06
 Reference value :  1.00016e-06
 Reference value :  1.00034e-06
 Reference value :  1.00086e-06
 Reference value :  1.00182e-06
 Reference value :  1.00278e-06
 Reference value :  1.00333e-06
 Reference value :  1.00449e-06
 Reference value :  1.00586e-06
 Reference value :  1.00855e-06
 Reference value :  1.01010e-06
 Reference value :  1.01280e-06
 Reference value :  1.01379e-06
 Reference value :  1.01587e-06
 Reference value :  1.01802e-06
 Reference value :  1.02277e-06
 Reference value :  1.03875e-06
 Reference value :  1.12280e-06
 Reference value :  1.25010e-06
 Reference value :  1.25013e-06
 Reference value :  1.25020e-06
 Reference value :  1.25026e-06
 Reference value :  1.25060e-06
 Reference value :  1.25127e-06
 Reference value :  1.25216e-06
 Reference value :  1.25346e-06
 Reference value :  1.25452e-06
 Reference value :  1.25582e-06
 Reference value :  1.25976e-06
 Reference value :  1.27108e-06
 Reference value :  1.27661e-06
 Reference value :  1.28868e-06
 Reference value :  1.31409e-06
 Reference value :  1.47499e-06
 Reference value :  1.50003e-06
 Reference value :  1.50011e-06
 Reference value :  1.50022e-06
 Reference value :  1.50086e-06
 Reference value :  1.50175e-06
 Reference value :  1.50268e-06
 Reference value :  1.50322e-06
 Reference value :  1.50442e-06
 Reference value :  1.50605e-06
 Reference value :  1.50748e-06
 Reference value :  1.50832e-06
 Reference value :  1.51149e-06
 Reference value :  1.52624e-06
 Reference value :  1.64182e-06
 Reference value :  1.75013e-06
 Reference value :  1.75020e-06
 Reference value :  1.75022e-06
 Reference value :  1.75044e-06
 Reference value :  1.75083e-06
 Reference value :  1.75170e-06
 Reference value :  1.75270e-06
 Reference value :  1.75401e-06
 Reference value :  1.75527e-06
 Reference value :  1.75680e-06
 Reference value :  1.75871e-06
 Reference value :  1.76167e-06
 Reference value :  1.77226e-06
 Reference value :  1.81666e-06
 Reference value :  2.00000e-06
 Reference value :  2.00003e-06
 Reference value :  2.00010e-06
 Reference value :  2.00016e-06
 Reference value :  2.00052e-06
 Reference value :  2.00131e-06
 Reference value :  2.00231e-06
 Reference value :  2.00334e-06
 Reference value :  2.00457e-06
 Reference value :  2.00582e-06
 Reference value :  2.00834e-06
 Reference value :  2.01047e-06
 Reference value :  2.01155e-06
 Reference value :  2.01351e-06
 Reference value :  2.01529e-06
 Reference value :  2.01725e-06
 Reference value :  2.01840e-06
 Reference value :  2.02346e-06
 Reference value :  2.03055e-06
 Reference value :  2.03420e-06
 Reference value :  2.03682e-06
 Reference value :  2.04107e-06
 Reference value :  2.05461e-06
 Reference value :  2.10341e-06
 Reference value :  2.25010e-06
 Reference value :  2.25017e-06
 Reference value :  2.25022e-06
 Reference value :  2.25044e-06
 Reference value :  2.25126e-06
 Reference value :  2.25214e-06
 Reference value :  2.25350e-06
 Reference value :  2.25460e-06
 Reference value :  2.25598e-06
 Reference value :  2.26015e-06
 Reference value :  2.29412e-06
 Reference value :  2.50001e-06
 Reference value :  2.50010e-06
 Reference value :  2.50016e-06
 Reference value :  2.50052e-06
 Reference value :  2.50131e-06
 Reference value :  2.50278e-06
 Reference value :  2.50333e-06
 Reference value :  2.50455e-06
 Reference value :  2.50638e-06
 Reference value :  2.50715e-06
 Reference value :  2.50887e-06
 Reference value :  2.51094e-06
 Reference value :  2.52427e-06
 Reference value :  2.58918e-06
 Reference value :  2.75011e-06
 Reference value :  2.75020e-06
 Reference value :  2.75026e-06
 Reference value :  2.75060e-06
 Reference value :  2.75171e-06
 Reference value :  2.75351e-06
 Reference value :  2.75461e-06
 Reference value :  2.75598e-06
 Reference value :  2.76020e-06
 Reference value :  2.77712e-06
 Reference value :  2.88486e-06
 Reference value :  3.00003e-06
 Reference value :  3.00011e-06
 Reference value :  3.00022e-06
 Reference value :  3.00086e-06
 Reference value :  3.00231e-06
 Reference value :  3.00332e-06
 Reference value :  3.00521e-06
 Reference value :  3.00586e-06
 Reference value :  3.00853e-06
 Reference value :  3.01007e-06
 Reference value :  3.01276e-06
 Reference value :  3.01376e-06
 Reference value :  3.01584e-06
 Reference value :  3.01789e-06
 Reference value :  3.02242e-06
 Reference value :  3.03045e-06
 Reference value :  3.05330e-06
 Reference value :  3.11650e-06
 Reference value :  3.22122e-06
 Reference value :  3.25013e-06
 Reference value :  3.25021e-06
 Reference value :  3.25032e-06
 Reference value :  3.25060e-06
 Reference value :  3.25170e-06
 Reference value :  3.25350e-06
 Reference value :  3.25401e-06
 Reference value :  3.25525e-06
 Reference value :  3.25676e-06
 Reference value :  3.26314e-06
 Reference value :  3.29429e-06
 Reference value :  3.39481e-06
 Reference value :  3.50003e-06
 Reference value :  3.50010e-06
 Reference value :  3.50012e-06
 Reference value :  3.50022e-06
 Reference value :  3.50052e-06
 Reference value :  3.50131e-06
 Reference value :  3.50231e-06
 Reference value :  3.50333e-06
 Reference value :  3.50391e-06
 Reference value :  3.50550e-06
 Reference value :  3.50716e-06
 Reference value :  3.50888e-06
 Reference value :  3.51094e-06
 Reference value :  3.51802e-06
 Reference value :  3.55252e-06
 Reference value :  3.65884e-06
 Reference value :  3.75011e-06
 Reference value :  3.75017e-06
 Reference value :  3.75022e-06
 Reference value :  3.75045e-06
 Reference value :  3.75127e-06
 Reference value :  3.75215e-06
 Reference value :  3.75351e-06
 Reference value :  3.75402e-06
 Reference value :  3.75527e-06
 Reference value :  3.75689e-06
 Reference value :  3.76275e-06
 Reference value :  3.79263e-06
 Reference value :  4.00000e-06
 Reference value :  4.00003e-06
 Reference value :  4.00010e-06
 Reference value :  4.00016e-06
 Reference value :  4.00034e-06
 Reference value :  4.00086e-06
 Reference value :  4.00182e-06
 Reference value :  4.00278e-06
 Reference value :  4.00390e-06
 Reference value :  4.00521e-06
 Reference value :  4.00585e-06
 Reference value :  4.00852e-06
 Reference value :  4.01006e-06
 Reference value :  4.01287e-06
 Reference value :  4.01392e-06
 Reference value :  4.01606e-06
 Reference value :  4.01819e-06
 Reference value :  4.02309e-06
 Reference value :  4.03897e-06
 Reference value :  4.05284e-06
 Reference value :  4.07436e-06
 Reference value :  4.09527e-06
 Reference value :  4.11195e-06
 Reference value :  4.12319e-06
 Reference value :  4.14697e-06
 Reference value :  4.17613e-06
 Reference value :  4.25011e-06
 Reference value :  4.25020e-06
 Reference value :  4.25026e-06
 Reference value :  4.25054e-06
 Reference value :  4.25147e-06
 Reference value :  4.25245e-06
 Reference value :  4.25384e-06
 Reference value :  4.25441e-06
 Reference value :  4.25565e-06
 Reference value :  4.25739e-06
 Reference value :  4.26506e-06
 Reference value :  4.31273e-06
 Reference value :  4.50001e-06
 Reference value :  4.50010e-06
 Reference value :  4.50022e-06
 Reference value :  4.50093e-06
 Reference value :  4.50196e-06
 Reference value :  4.50297e-06
 Reference value :  4.50410e-06
 Reference value :  4.50570e-06
 Reference value :  4.50641e-06
 Reference value :  4.50828e-06
 Reference value :  4.51019e-06
 Reference value :  4.51246e-06
 Reference value :  4.52703e-06
 Reference value :  4.75010e-06
 Reference value :  4.75013e-06
 Reference value :  4.75020e-06
 Reference value :  4.75025e-06
 Reference value :  4.75054e-06
 Reference value :  4.75147e-06
 Reference value :  4.75244e-06
 Reference value :  4.75382e-06
 Reference value :  4.75440e-06
 Reference value :  4.75566e-06
 Reference value :  4.75725e-06
 Reference value :  4.77070e-06
 Reference value :  4.94544e-06
 Reference value :  5.00003e-06
 Reference value :  5.00011e-06
 Reference value :  5.00016e-06
 Reference value :  5.00059e-06
 Reference value :  5.00196e-06
 Reference value :  5.00297e-06
 Reference value :  5.00349e-06
 Reference value :  5.00466e-06
 Reference value :  5.00659e-06
 Reference value :  5.01046e-06
 Reference value :  5.01186e-06
 Reference value :  5.01441e-06
 Reference value :  5.01633e-06
 Reference value :  5.02004e-06
 Reference value :  5.02925e-06
 Reference value :  5.04049e-06
 Reference value :  5.05157e-06
 Reference value :  5.06315e-06
 Reference value :  5.08134e-06
 Reference value :  5.14932e-06
 Reference value :  5.20723e-06
 Reference value :  5.22668e-06
 Reference value :  5.25010e-06
 Reference value :  5.25017e-06
 Reference value :  5.25022e-06
 Reference value :  5.25039e-06
 Reference value :  5.25097e-06
 Reference value :  5.25241e-06
 Reference value :  5.25381e-06
 Reference value :  5.25435e-06
 Reference value :  5.25558e-06
 Reference value :  5.25724e-06
 Reference value :  5.26451e-06
 Reference value :  5.30386e-06
 Reference value :  5.50001e-06
 Reference value :  5.50010e-06
 Reference value :  5.50016e-06
 Reference value :  5.50059e-06
 Reference value :  5.50145e-06
 Reference value :  5.50245e-06
 Reference value :  5.50350e-06
 Reference value :  5.50489e-06
 Reference value :  5.50641e-06
 Reference value :  5.50826e-06
 Reference value :  5.51018e-06
 Reference value :  5.51243e-06
 Reference value :  5.52696e-06
 Reference value :  5.75010e-06
 Reference value :  5.75017e-06
 Reference value :  5.75022e-06
 Reference value :  5.75039e-06
 Reference value :  5.75099e-06
 Reference value :  5.75194e-06
 Reference value :  5.75311e-06
 Reference value :  5.75440e-06
 Reference value :  5.75566e-06
 Reference value :  5.75725e-06
 Reference value :  5.77067e-06
 Reference value :  5.85148e-06
 Reference value :  6.00001e-06
 Reference value :  6.00010e-06
 Reference value :  6.00022e-06
 Reference value :  6.00093e-06
 Reference value :  6.00245e-06
 Reference value :  6.00349e-06
 Reference value :  6.00466e-06
 Reference value :  6.00659e-06
 Reference value :  6.01046e-06
 Reference value :  6.01186e-06
 Reference value :  6.01441e-06
 Reference value :  6.01634e-06
 Reference value :  6.02004e-06
 Reference value :  6.02885e-06
 Reference value :  6.03872e-06
 Reference value :  6.04629e-06
 Reference value :  6.05466e-06
 Reference value :  6.07204e-06
 Reference value :  6.13361e-06
 Reference value :  6.25011e-06
 Reference value :  6.25020e-06
 Reference value :  6.25025e-06
 Reference value :  6.25054e-06
 Reference value :  6.25142e-06
 Reference value :  6.25240e-06
 Reference value :  6.25375e-06
 Reference value :  6.25431e-06
 Reference value :  6.25553e-06
 Reference value :  6.25637e-06
 Reference value :  6.25891e-06
 Reference value :  6.27066e-06
 Reference value :  6.34316e-06
 Reference value :  6.50001e-06
 Reference value :  6.50007e-06
 Reference value :  6.50012e-06
 Reference value :  6.50035e-06
 Reference value :  6.50145e-06
 Reference value :  6.50243e-06
 Reference value :  6.50348e-06
 Reference value :  6.50471e-06
 Reference value :  6.50647e-06
 Reference value :  6.50835e-06
 Reference value :  6.51024e-06
 Reference value :  6.51134e-06
 Reference value :  6.51874e-06
 Reference value :  6.53831e-06
 Reference value :  6.69426e-06
 Reference value :  6.75011e-06
 Reference value :  6.75017e-06
 Reference value :  6.75021e-06
 Reference value :  6.75026e-06
 Reference value :  6.75039e-06
 Reference value :  6.75099e-06
 Reference value :  6.75194e-06
 Reference value :  6.75311e-06
 Reference value :  6.75440e-06
 Reference value :  6.75566e-06
 Reference value :  6.75644e-06
 Reference value :  6.75808e-06
 Reference value :  6.76025e-06
 Reference value :  6.76721e-06
 Reference value :  6.79478e-06
 Reference value :  7.00000e-06
 Reference value :  7.00003e-06
 Reference value :  7.00010e-06
 Reference value :  7.00012e-06
 Reference value :  7.00022e-06
 Reference value :  7.00059e-06
 Reference value :  7.00145e-06
 Reference value :  7.00245e-06
 Reference value :  7.00350e-06
 Reference value :  7.00459e-06
 Reference value :  7.00583e-06
 Reference value :  7.00816e-06
 Reference value :  7.01066e-06
 Reference value :  7.01294e-06
 Reference value :  7.01379e-06
 Reference value :  7.01554e-06
 Reference value :  7.01747e-06
 Reference value :  7.01996e-06
 Reference value :  7.02439e-06
 Reference value :  7.03195e-06
 Reference value :  7.04812e-06
 Reference value :  7.05420e-06
 Reference value :  7.06790e-06
 Reference value :  7.08876e-06
 Reference value :  7.11639e-06
 Reference value :  7.18626e-06
 Reference value :  7.25011e-06
 Reference value :  7.25020e-06
 Reference value :  7.25022e-06
 Reference value :  7.25032e-06
 Reference value :  7.25054e-06
 Reference value :  7.25097e-06
 Reference value :  7.25193e-06
 Reference value :  7.25309e-06
 Reference value :  7.25435e-06
 Reference value :  7.25556e-06
 Reference value :  7.25718e-06
 Reference value :  7.26433e-06
 Reference value :  7.28171e-06
 Reference value :  7.42577e-06
 Reference value :  7.50003e-06
 Reference value :  7.50010e-06
 Reference value :  7.50016e-06
 Reference value :  7.50035e-06
 Reference value :  7.50145e-06
 Reference value :  7.50245e-06
 Reference value :  7.50350e-06
 Reference value :  7.50490e-06
 Reference value :  7.50641e-06
 Reference value :  7.50828e-06
 Reference value :  7.51126e-06
 Reference value :  7.54272e-06
 Reference value :  7.75013e-06
 Reference value :  7.75025e-06
 Reference value :  7.75074e-06
 Reference value :  7.75244e-06
 Reference value :  7.75382e-06
 Reference value :  7.75503e-06
 Reference value :  7.75643e-06
 Reference value :  7.76116e-06
 Reference value :  7.78294e-06
 Reference value :  7.94004e-06
 Reference value :  8.00003e-06
 Reference value :  8.00011e-06
 Reference value :  8.00022e-06
 Reference value :  8.00093e-06
 Reference value :  8.00245e-06
 Reference value :  8.00349e-06
 Reference value :  8.00466e-06
 Reference value :  8.00588e-06
 Reference value :  8.00739e-06
 Reference value :  8.00899e-06
 Reference value :  8.01102e-06
 Reference value :  8.04245e-06
 Reference value :  8.25011e-06
 Reference value :  8.25020e-06
 Reference value :  8.25032e-06
 Reference value :  8.25079e-06
 Reference value :  8.25205e-06
 Reference value :  8.25329e-06
 Reference value :  8.25503e-06
 Reference value :  8.25693e-06
 Reference value :  8.26020e-06
 Reference value :  8.27753e-06
 Reference value :  8.50000e-06
 Reference value :  8.50010e-06
 Reference value :  8.50022e-06
 Reference value :  8.50094e-06
 Reference value :  8.50195e-06
 Reference value :  8.50297e-06
 Reference value :  8.50357e-06
 Reference value :  8.50489e-06
 Reference value :  8.50631e-06
 Reference value :  8.51027e-06
 Reference value :  8.52616e-06
 Reference value :  8.53074e-06
 Reference value :  8.53819e-06
 Reference value :  8.54347e-06
 Reference value :  8.54938e-06
 Reference value :  8.56178e-06
 Reference value :  8.57885e-06
 Reference value :  8.65633e-06
 Reference value :  8.75011e-06
 Reference value :  8.75017e-06
 Reference value :  8.75022e-06
 Reference value :  8.75044e-06
 Reference value :  8.75083e-06
 Reference value :  8.75170e-06
 Reference value :  8.75271e-06
 Reference value :  8.75348e-06
 Reference value :  8.75398e-06
 Reference value :  8.75521e-06
 Reference value :  8.75593e-06
 Reference value :  8.75670e-06
 Reference value :  8.76003e-06
 Reference value :  8.77567e-06
 Reference value :  8.79260e-06
 Reference value :  9.00000e-06
 Reference value :  9.00007e-06
 Reference value :  9.00012e-06
 Reference value :  9.00034e-06
 Reference value :  9.00086e-06
 Reference value :  9.00231e-06
 Reference value :  9.00332e-06
 Reference value :  9.00454e-06
 Reference value :  9.00636e-06
 Reference value :  9.00757e-06
 Reference value :  9.00985e-06
 Reference value :  9.01108e-06
 Reference value :  9.01366e-06
 Reference value :  9.01710e-06
 Reference value :  9.02691e-06
 Reference value :  9.06839e-06
 Reference value :  9.25010e-06
 Reference value :  9.25013e-06
 Reference value :  9.25020e-06
 Reference value :  9.25026e-06
 Reference value :  9.25060e-06
 Reference value :  9.25170e-06
 Reference value :  9.25349e-06
 Reference value :  9.25460e-06
 Reference value :  9.25598e-06
 Reference value :  9.25803e-06
 Reference value :  9.27729e-06
 Reference value :  9.38491e-06
 Reference value :  9.50007e-06
 Reference value :  9.50016e-06
 Reference value :  9.50052e-06
 Reference value :  9.50182e-06
 Reference value :  9.50278e-06
 Reference value :  9.50332e-06
 Reference value :  9.50448e-06
 Reference value :  9.50585e-06
 Reference value :  9.50748e-06
 Reference value :  9.51005e-06
 Reference value :  9.51274e-06
 Reference value :  9.51374e-06
 Reference value :  9.51582e-06
 Reference value :  9.51683e-06
 Reference value :  9.51906e-06
 Reference value :  9.52524e-06
 Reference value :  9.55342e-06
 Reference value :  9.70400e-06
 Reference value :  9.75010e-06
 Reference value :  9.75013e-06
 Reference value :  9.75020e-06
 Reference value :  9.75026e-06
 Reference value :  9.75060e-06
 Reference value :  9.75171e-06
 Reference value :  9.75273e-06
 Reference value :  9.75395e-06
 Reference value :  9.75512e-06
 Reference value :  9.75659e-06
 Reference value :  9.76268e-06
 Reference value :  9.77214e-06
 Reference value :  9.77783e-06
 Reference value :  9.78966e-06
 Reference value :  9.81706e-06
 Reference value :  9.99497e-06
 Reference value :  1.00000e-05
 Reference value :  1.00001e-05
 Reference value :  1.00001e-05
 Reference value :  1.00002e-05
 Reference value :  1.00005e-05
 Reference value :  1.00013e-05
 Reference value :  1.00022e-05
 Reference value :  1.00032e-05
 Reference value :  1.00044e-05
 Reference value :  1.00061e-05
 Reference value :  1.00067e-05
 Reference value :  1.00083e-05
 Reference value :  1.00115e-05
 Reference value :  1.00259e-05
 Reference value :  1.02501e-05
 Reference value :  1.02502e-05
 Reference value :  1.02502e-05
 Reference value :  1.02504e-05
 Reference value :  1.02513e-05
 Reference value :  1.02527e-05
 Reference value :  1.02540e-05
 Reference value :  1.02560e-05
 Reference value :  1.02577e-05
 Reference value :  1.02598e-05
 Reference value :  1.02723e-05
 Reference value :  1.03537e-05
 Reference value :  1.05000e-05
 Reference value :  1.05001e-05
 Reference value :  1.05003e-05
 Reference value :  1.05009e-05
 Reference value :  1.05023e-05
 Reference value :  1.05033e-05
 Reference value :  1.05052e-05
 Reference value :  1.05065e-05
 Reference value :  1.05094e-05
 Reference value :  1.05115e-05
 Reference value :  1.05135e-05
 Reference value :  1.05153e-05
 Reference value :  1.05172e-05
 Reference value :  1.05193e-05
 Reference value :  1.05225e-05
 Reference value :  1.05330e-05
 Reference value :  1.05370e-05
 Reference value :  1.05396e-05
 Reference value :  1.05450e-05
 Reference value :  1.05647e-05
 Reference value :  1.06428e-05
 Reference value :  1.07501e-05
 Reference value :  1.07502e-05
 Reference value :  1.07503e-05
 Reference value :  1.07504e-05
 Reference value :  1.07513e-05
 Reference value :  1.07521e-05
 Reference value :  1.07535e-05
 Reference value :  1.07546e-05
 Reference value :  1.07560e-05
 Reference value :  1.07601e-05
 Reference value :  1.07763e-05
 Reference value :  1.10000e-05
 Reference value :  1.10001e-05
 Reference value :  1.10001e-05
 Reference value :  1.10002e-05
 Reference value :  1.10005e-05
 Reference value :  1.10013e-05
 Reference value :  1.10023e-05
 Reference value :  1.10033e-05
 Reference value :  1.10055e-05
 Reference value :  1.10071e-05
 Reference value :  1.10089e-05
 Reference value :  1.10109e-05
 Reference value :  1.10179e-05
 Reference value :  1.10519e-05
 Reference value :  1.12501e-05
 Reference value :  1.12502e-05
 Reference value :  1.12502e-05
 Reference value :  1.12504e-05
 Reference value :  1.12508e-05
 Reference value :  1.12517e-05
 Reference value :  1.12535e-05
 Reference value :  1.12546e-05
 Reference value :  1.12569e-05
 Reference value :  1.12627e-05
 Reference value :  1.12922e-05
 Reference value :  1.15000e-05
 Reference value :  1.15001e-05
 Reference value :  1.15001e-05
 Reference value :  1.15003e-05
 Reference value :  1.15013e-05
 Reference value :  1.15028e-05
 Reference value :  1.15039e-05
 Reference value :  1.15052e-05
 Reference value :  1.15065e-05
 Reference value :  1.15101e-05
 Reference value :  1.15128e-05
 Reference value :  1.15147e-05
 Reference value :  1.15168e-05
 Reference value :  1.15190e-05
 Reference value :  1.15245e-05
 Reference value :  1.15757e-05
 Reference value :  1.17501e-05
 Reference value :  1.17502e-05
 Reference value :  1.17503e-05
 Reference value :  1.17506e-05
 Reference value :  1.17517e-05
 Reference value :  1.17535e-05
 Reference value :  1.17540e-05
 Reference value :  1.17560e-05
 Reference value :  1.17602e-05
 Reference value :  1.17942e-05
 Reference value :  1.20000e-05
 Reference value :  1.20001e-05
 Reference value :  1.20001e-05
 Reference value :  1.20003e-05
 Reference value :  1.20009e-05
 Reference value :  1.20018e-05
 Reference value :  1.20028e-05
 Reference value :  1.20039e-05
 Reference value :  1.20055e-05
 Reference value :  1.20071e-05
 Reference value :  1.20089e-05
 Reference value :  1.20109e-05
 Reference value :  1.20240e-05
 Reference value :  1.20865e-05
 Reference value :  1.22501e-05
 Reference value :  1.22502e-05
 Reference value :  1.22502e-05
 Reference value :  1.22504e-05
 Reference value :  1.22508e-05
 Reference value :  1.22522e-05
 Reference value :  1.22535e-05
 Reference value :  1.22546e-05
 Reference value :  1.22560e-05
 Reference value :  1.22602e-05
 Reference value :  1.22770e-05
 Reference value :  1.25000e-05
 Reference value :  1.25001e-05
 Reference value :  1.25001e-05
 Reference value :  1.25002e-05
 Reference value :  1.25005e-05
 Reference value :  1.25018e-05
 Reference value :  1.25033e-05
 Reference value :  1.25045e-05
 Reference value :  1.25059e-05
 Reference value :  1.25075e-05
 Reference value :  1.25101e-05
 Reference value :  1.25129e-05
 Reference value :  1.25149e-05
 Reference value :  1.25170e-05
 Reference value :  1.25192e-05
 Reference value :  1.25296e-05
 Reference value :  1.25459e-05
 Reference value :  1.25555e-05
 Reference value :  1.25694e-05
 Reference value :  1.25759e-05
 Reference value :  1.25967e-05
 Reference value :  1.26126e-05
 Reference value :  1.26232e-05
 Reference value :  1.26663e-05
 Reference value :  1.27159e-05
 Reference value :  1.27501e-05
 Reference value :  1.27502e-05
 Reference value :  1.27503e-05
 Reference value :  1.27507e-05
 Reference value :  1.27515e-05
 Reference value :  1.27524e-05
 Reference value :  1.27538e-05
 Reference value :  1.27550e-05
 Reference value :  1.27565e-05
 Reference value :  1.27651e-05
 Reference value :  1.28670e-05
 Reference value :  1.30000e-05
 Reference value :  1.30001e-05
 Reference value :  1.30002e-05
 Reference value :  1.30003e-05
 Reference value :  1.30009e-05
 Reference value :  1.30020e-05
 Reference value :  1.30030e-05
 Reference value :  1.30041e-05
 Reference value :  1.30057e-05
 Reference value :  1.30064e-05
 Reference value :  1.30083e-05
 Reference value :  1.30102e-05
 Reference value :  1.30125e-05
 Reference value :  1.30268e-05
 Reference value :  1.31303e-05
 Reference value :  1.32501e-05
 Reference value :  1.32502e-05
 Reference value :  1.32503e-05
 Reference value :  1.32505e-05
 Reference value :  1.32515e-05
 Reference value :  1.32524e-05
 Reference value :  1.32538e-05
 Reference value :  1.32550e-05
 Reference value :  1.32564e-05
 Reference value :  1.32646e-05
 Reference value :  1.33057e-05
 Reference value :  1.35000e-05
 Reference value :  1.35001e-05
 Reference value :  1.35002e-05
 Reference value :  1.35006e-05
 Reference value :  1.35015e-05
 Reference value :  1.35024e-05
 Reference value :  1.35035e-05
 Reference value :  1.35047e-05
 Reference value :  1.35059e-05
 Reference value :  1.35087e-05
 Reference value :  1.35119e-05
 Reference value :  1.35143e-05
 Reference value :  1.35164e-05
 Reference value :  1.35187e-05
 Reference value :  1.35219e-05
 Reference value :  1.35280e-05
 Reference value :  1.35374e-05
 Reference value :  1.35428e-05
 Reference value :  1.35506e-05
 Reference value :  1.35549e-05
 Reference value :  1.35647e-05
 Reference value :  1.35836e-05
 Reference value :  1.36343e-05
 Reference value :  1.36943e-05
 Reference value :  1.37242e-05
 Reference value :  1.37402e-05
 Reference value :  1.37501e-05
 Reference value :  1.37502e-05
 Reference value :  1.37503e-05
 Reference value :  1.37505e-05
 Reference value :  1.37514e-05
 Reference value :  1.37524e-05
 Reference value :  1.37538e-05
 Reference value :  1.37550e-05
 Reference value :  1.37564e-05
 Reference value :  1.37611e-05
 Reference value :  1.38028e-05
 Reference value :  1.40000e-05
 Reference value :  1.40001e-05
 Reference value :  1.40002e-05
 Reference value :  1.40006e-05
 Reference value :  1.40015e-05
 Reference value :  1.40024e-05
 Reference value :  1.40035e-05
 Reference value :  1.40049e-05
 Reference value :  1.40064e-05
 Reference value :  1.40083e-05
 Reference value :  1.40113e-05
 Reference value :  1.40190e-05
 Reference value :  1.41332e-05
 Reference value :  1.42501e-05
 Reference value :  1.42502e-05
 Reference value :  1.42503e-05
 Reference value :  1.42507e-05
 Reference value :  1.42519e-05
 Reference value :  1.42531e-05
 Reference value :  1.42544e-05
 Reference value :  1.42557e-05
 Reference value :  1.42573e-05
 Reference value :  1.42645e-05
 Reference value :  1.43054e-05
 Reference value :  1.45000e-05
 Reference value :  1.45001e-05
 Reference value :  1.45001e-05
 Reference value :  1.45002e-05
 Reference value :  1.45009e-05
 Reference value :  1.45024e-05
 Reference value :  1.45035e-05
 Reference value :  1.45047e-05
 Reference value :  1.45059e-05
 Reference value :  1.45074e-05
 Reference value :  1.45105e-05
 Reference value :  1.45119e-05
 Reference value :  1.45144e-05
 Reference value :  1.45163e-05
 Reference value :  1.45188e-05
 Reference value :  1.45248e-05
 Reference value :  1.45335e-05
 Reference value :  1.45387e-05
 Reference value :  1.45425e-05
 Reference value :  1.45504e-05
 Reference value :  1.45601e-05
 Reference value :  1.45921e-05
 Reference value :  1.47400e-05
 Reference value :  1.47501e-05
 Reference value :  1.47502e-05
 Reference value :  1.47503e-05
 Reference value :  1.47505e-05
 Reference value :  1.47514e-05
 Reference value :  1.47524e-05
 Reference value :  1.47538e-05
 Reference value :  1.47549e-05
 Reference value :  1.47564e-05
 Reference value :  1.47611e-05
 Reference value :  1.47822e-05
 Reference value :  1.49226e-05
 Reference value :  1.50000e-05
 Reference value :  1.50001e-05
 Reference value :  1.50003e-05
 Reference value :  1.50015e-05
 Reference value :  1.50024e-05
 Reference value :  1.50035e-05
 Reference value :  1.50047e-05
 Reference value :  1.50065e-05
 Reference value :  1.50084e-05
 Reference value :  1.50103e-05
 Reference value :  1.50126e-05
 Reference value :  1.50255e-05
 Reference value :  1.51010e-05
 Reference value :  1.52501e-05
 Reference value :  1.52502e-05
 Reference value :  1.52503e-05
 Reference value :  1.52505e-05
 Reference value :  1.52510e-05
 Reference value :  1.52519e-05
 Reference value :  1.52531e-05
 Reference value :  1.52544e-05
 Reference value :  1.52557e-05
 Reference value :  1.52564e-05
 Reference value :  1.52581e-05
 Reference value :  1.52619e-05
 Reference value :  1.52729e-05
 Reference value :  1.53166e-05
 Reference value :  1.55000e-05
 Reference value :  1.55013e-05
 Reference value :  1.55052e-05
 Reference value :  1.55077e-05
 Reference value :  1.55101e-05
 Reference value :  1.55122e-05
 Reference value :  1.55141e-05
 Reference value :  1.55158e-05
 Reference value :  1.55177e-05
 Reference value :  1.55187e-05
 Reference value :  1.55235e-05
 Reference value :  1.55268e-05
 Reference value :  1.55447e-05
 Reference value :  1.55537e-05
 Reference value :  1.55604e-05
 Reference value :  1.55760e-05
 Reference value :  1.56204e-05
 Reference value :  1.57490e-05
 Reference value :  1.57501e-05
 Reference value :  1.57502e-05
 Reference value :  1.57503e-05
 Reference value :  1.57507e-05
 Reference value :  1.57515e-05
 Reference value :  1.57524e-05
 Reference value :  1.57537e-05
 Reference value :  1.57543e-05
 Reference value :  1.57555e-05
 Reference value :  1.57570e-05
 Reference value :  1.57639e-05
 Reference value :  1.57956e-05
 Reference value :  1.59698e-05
 Reference value :  1.60000e-05
 Reference value :  1.60001e-05
 Reference value :  1.60002e-05
 Reference value :  1.60003e-05
 Reference value :  1.60009e-05
 Reference value :  1.60020e-05
 Reference value :  1.60030e-05
 Reference value :  1.60035e-05
 Reference value :  1.60049e-05
 Reference value :  1.60064e-05
 Reference value :  1.60083e-05
 Reference value :  1.60102e-05
 Reference value :  1.60112e-05
 Reference value :  1.60190e-05
 Reference value :  1.60731e-05
 Reference value :  1.62501e-05
 Reference value :  1.62502e-05
 Reference value :  1.62502e-05
 Reference value :  1.62503e-05
 Reference value :  1.62507e-05
 Reference value :  1.62519e-05
 Reference value :  1.62531e-05
 Reference value :  1.62544e-05
 Reference value :  1.62557e-05
 Reference value :  1.62573e-05
 Reference value :  1.62707e-05
 Reference value :  1.64401e-05
 Reference value :  1.65000e-05
 Reference value :  1.65001e-05
 Reference value :  1.65002e-05
 Reference value :  1.65009e-05
 Reference value :  1.65020e-05
 Reference value :  1.65030e-05
 Reference value :  1.65035e-05
 Reference value :  1.65047e-05
 Reference value :  1.65059e-05
 Reference value :  1.65074e-05
 Reference value :  1.65081e-05
 Reference value :  1.65100e-05
 Reference value :  1.65174e-05
 Reference value :  1.65759e-05
 Reference value :  1.67501e-05
 Reference value :  1.67502e-05
 Reference value :  1.67503e-05
 Reference value :  1.67504e-05
 Reference value :  1.67512e-05
 Reference value :  1.67520e-05
 Reference value :  1.67533e-05
 Reference value :  1.67550e-05
 Reference value :  1.67569e-05
 Reference value :  1.67602e-05
 Reference value :  1.67967e-05
 Reference value :  1.70015e-05
 Reference value :  1.70060e-05
 Reference value :  1.70111e-05
 Reference value :  1.70205e-05
 Reference value :  1.70253e-05
 Reference value :  1.70287e-05
 Reference value :  1.70314e-05
 Reference value :  1.70338e-05
 Reference value :  1.70357e-05
 Reference value :  1.70386e-05
 Reference value :  1.70416e-05
 Reference value :  1.70499e-05
 Reference value :  1.70641e-05
 Reference value :  1.71106e-05
 Reference value :  1.72489e-05
 Reference value :  1.72501e-05
 Reference value :  1.72502e-05
 Reference value :  1.72503e-05
 Reference value :  1.72508e-05
 Reference value :  1.72517e-05
 Reference value :  1.72534e-05
 Reference value :  1.72545e-05
 Reference value :  1.72559e-05
 Reference value :  1.72599e-05
 Reference value :  1.72906e-05
 Reference value :  1.75000e-05
 Reference value :  1.75001e-05
 Reference value :  1.75001e-05
 Reference value :  1.75003e-05
 Reference value :  1.75009e-05
 Reference value :  1.75018e-05
 Reference value :  1.75033e-05
 Reference value :  1.75045e-05
 Reference value :  1.75076e-05
 Reference value :  1.75099e-05
 Reference value :  1.75124e-05
 Reference value :  1.75137e-05
 Reference value :  1.75191e-05
 Reference value :  1.75480e-05
 Reference value :  1.77501e-05
 Reference value :  1.77502e-05
 Reference value :  1.77503e-05
 Reference value :  1.77506e-05
 Reference value :  1.77513e-05
 Reference value :  1.77521e-05
 Reference value :  1.77535e-05
 Reference value :  1.77546e-05
 Reference value :  1.77569e-05
 Reference value :  1.77679e-05
 Reference value :  1.78851e-05
 Reference value :  1.80021e-05
 Reference value :  1.80062e-05
 Reference value :  1.80084e-05
 Reference value :  1.80121e-05
 Reference value :  1.80134e-05
 Reference value :  1.80159e-05
 Reference value :  1.80187e-05
 Reference value :  1.80253e-05
 Reference value :  1.80531e-05
 Reference value :  1.82148e-05
 Reference value :  1.82501e-05
 Reference value :  1.82502e-05
 Reference value :  1.82503e-05
 Reference value :  1.82506e-05
 Reference value :  1.82517e-05
 Reference value :  1.82527e-05
 Reference value :  1.82536e-05
 Reference value :  1.82546e-05
 Reference value :  1.82559e-05
 Reference value :  1.82582e-05
 Reference value :  1.82670e-05
 Reference value :  1.82774e-05
 Reference value :  1.82888e-05
 Reference value :  1.83222e-05
 Reference value :  1.85000e-05
 Reference value :  1.85001e-05
 Reference value :  1.85002e-05
 Reference value :  1.85005e-05
 Reference value :  1.85013e-05
 Reference value :  1.85022e-05
 Reference value :  1.85032e-05
 Reference value :  1.85044e-05
 Reference value :  1.85060e-05
 Reference value :  1.85067e-05
 Reference value :  1.85083e-05
 Reference value :  1.85103e-05
 Reference value :  1.85137e-05
 Reference value :  1.85401e-05
 Reference value :  1.86302e-05
 Reference value :  1.87501e-05
 Reference value :  1.87502e-05
 Reference value :  1.87502e-05
 Reference value :  1.87504e-05
 Reference value :  1.87513e-05
 Reference value :  1.87521e-05
 Reference value :  1.87535e-05
 Reference value :  1.87546e-05
 Reference value :  1.87568e-05
 Reference value :  1.87597e-05
 Reference value :  1.87667e-05
 Reference value :  1.87939e-05
 Reference value :  1.89092e-05
 Reference value :  1.90000e-05
 Reference value :  1.90001e-05
 Reference value :  1.90002e-05
 Reference value :  1.90009e-05
 Reference value :  1.90018e-05
 Reference value :  1.90028e-05
 Reference value :  1.90039e-05
 Reference value :  1.90058e-05
 Reference value :  1.90083e-05
 Reference value :  1.90105e-05
 Reference value :  1.90115e-05
 Reference value :  1.90135e-05
 Reference value :  1.90153e-05
 Reference value :  1.90173e-05
 Reference value :  1.90214e-05
 Reference value :  1.90310e-05
 Reference value :  1.90348e-05
 Reference value :  1.90374e-05
 Reference value :  1.90419e-05
 Reference value :  1.90524e-05
 Reference value :  1.90754e-05
 Reference value :  1.91528e-05
 Reference value :  1.92501e-05
 Reference value :  1.92502e-05
 Reference value :  1.92503e-05
 Reference value :  1.92508e-05
 Reference value :  1.92517e-05
 Reference value :  1.92535e-05
 Reference value :  1.92546e-05
 Reference value :  1.92560e-05
 Reference value :  1.92601e-05
 Reference value :  1.92940e-05
 Reference value :  1.95000e-05
 Reference value :  1.95020e-05
 Reference value :  1.95059e-05
 Reference value :  1.95079e-05
 Reference value :  1.95122e-05
 Reference value :  1.95195e-05
 Reference value :  1.95354e-05
 Reference value :  1.95913e-05
 Reference value :  1.97501e-05
 Reference value :  1.97502e-05
 Reference value :  1.97502e-05
 Reference value :  1.97504e-05
 Reference value :  1.97513e-05
 Reference value :  1.97527e-05
 Reference value :  1.97536e-05
 Reference value :  1.97547e-05
 Reference value :  1.97560e-05
 Reference value :  1.97583e-05
 Reference value :  1.97673e-05
 Reference value :  1.98279e-05
 Reference value :  2.00000e-05
 Reference value :  2.00000e-05
 Reference value :  2.00001e-05
 Reference value :  2.00001e-05
 Reference value :  2.00002e-05
 Reference value :  2.00005e-05
 Reference value :  2.00013e-05
 Reference value :  2.00023e-05
 Reference value :  2.00033e-05
 Reference value :  2.00045e-05
 Reference value :  2.00059e-05
 Reference value :  2.00075e-05
 Reference value :  2.00101e-05
 Reference value :  2.00128e-05
 Reference value :  2.00138e-05
 Reference value :  2.00158e-05
 Reference value :  2.00179e-05
 Reference value :  2.00206e-05
 Reference value :  2.00384e-05
 Reference value :  2.01682e-05
 Reference value :  2.02501e-05
 Reference value :  2.02502e-05
 Reference value :  2.02503e-05
 Reference value :  2.02508e-05
 Reference value :  2.02521e-05
 Reference value :  2.02540e-05
 Reference value :  2.02560e-05
 Reference value :  2.02583e-05
 Reference value :  2.02676e-05
 Reference value :  2.03271e-05
 Reference value :  2.05020e-05
 Reference value :  2.05059e-05
 Reference value :  2.05079e-05
 Reference value :  2.05122e-05
 Reference value :  2.05195e-05
 Reference value :  2.05360e-05
 Reference value :  2.05945e-05
 Reference value :  2.07501e-05
 Reference value :  2.07502e-05
 Reference value :  2.07503e-05
 Reference value :  2.07506e-05
 Reference value :  2.07517e-05
 Reference value :  2.07527e-05
 Reference value :  2.07536e-05
 Reference value :  2.07547e-05
 Reference value :  2.07568e-05
 Reference value :  2.07630e-05
 Reference value :  2.08280e-05
 Reference value :  2.10000e-05
 Reference value :  2.10001e-05
 Reference value :  2.10002e-05
 Reference value :  2.10005e-05
 Reference value :  2.10013e-05
 Reference value :  2.10028e-05
 Reference value :  2.10033e-05
 Reference value :  2.10045e-05
 Reference value :  2.10059e-05
 Reference value :  2.10085e-05
 Reference value :  2.10101e-05
 Reference value :  2.10129e-05
 Reference value :  2.10149e-05
 Reference value :  2.10171e-05
 Reference value :  2.10194e-05
 Reference value :  2.10265e-05
 Reference value :  2.10388e-05
 Reference value :  2.10526e-05
 Reference value :  2.10606e-05
 Reference value :  2.10674e-05
 Reference value :  2.10811e-05
 Reference value :  2.10948e-05
 Reference value :  2.11120e-05
 Reference value :  2.11177e-05
 Reference value :  2.11293e-05
 Reference value :  2.11475e-05
 Reference value :  2.11768e-05
 Reference value :  2.12501e-05
 Reference value :  2.12502e-05
 Reference value :  2.12502e-05
 Reference value :  2.12504e-05
 Reference value :  2.12510e-05
 Reference value :  2.12519e-05
 Reference value :  2.12531e-05
 Reference value :  2.12544e-05
 Reference value :  2.12557e-05
 Reference value :  2.12574e-05
 Reference value :  2.12651e-05
 Reference value :  2.13127e-05
 Reference value :  2.15000e-05
 Reference value :  2.15001e-05
 Reference value :  2.15001e-05
 Reference value :  2.15002e-05
 Reference value :  2.15003e-05
 Reference value :  2.15009e-05
 Reference value :  2.15020e-05
 Reference value :  2.15030e-05
 Reference value :  2.15035e-05
 Reference value :  2.15049e-05
 Reference value :  2.15064e-05
 Reference value :  2.15083e-05
 Reference value :  2.15102e-05
 Reference value :  2.15113e-05
 Reference value :  2.15190e-05
 Reference value :  2.15723e-05
 Reference value :  2.17501e-05
 Reference value :  2.17501e-05
 Reference value :  2.17502e-05
 Reference value :  2.17502e-05
 Reference value :  2.17503e-05
 Reference value :  2.17505e-05
 Reference value :  2.17510e-05
 Reference value :  2.17519e-05
 Reference value :  2.17531e-05
 Reference value :  2.17544e-05
 Reference value :  2.17557e-05
 Reference value :  2.17564e-05
 Reference value :  2.17589e-05
 Reference value :  2.17645e-05
 Reference value :  2.18054e-05
 Reference value :  2.20000e-05
 Reference value :  2.20011e-05
 Reference value :  2.20044e-05
 Reference value :  2.20064e-05
 Reference value :  2.20082e-05
 Reference value :  2.20107e-05
 Reference value :  2.20120e-05
 Reference value :  2.20143e-05
 Reference value :  2.20164e-05
 Reference value :  2.20185e-05
 Reference value :  2.20230e-05
 Reference value :  2.20304e-05
 Reference value :  2.20408e-05
 Reference value :  2.20521e-05
 Reference value :  2.20635e-05
 Reference value :  2.20821e-05
 Reference value :  2.21479e-05
 Reference value :  2.22013e-05
 Reference value :  2.22314e-05
 Reference value :  2.22501e-05
 Reference value :  2.22502e-05
 Reference value :  2.22503e-05
 Reference value :  2.22505e-05
 Reference value :  2.22509e-05
 Reference value :  2.22515e-05
 Reference value :  2.22524e-05
 Reference value :  2.22537e-05
 Reference value :  2.22543e-05
 Reference value :  2.22563e-05
 Reference value :  2.22608e-05
 Reference value :  2.22796e-05
 Reference value :  2.23782e-05
 Reference value :  2.25000e-05
 Reference value :  2.25001e-05
 Reference value :  2.25006e-05
 Reference value :  2.25020e-05
 Reference value :  2.25030e-05
 Reference value :  2.25041e-05
 Reference value :  2.25064e-05
 Reference value :  2.25083e-05
 Reference value :  2.25113e-05
 Reference value :  2.25269e-05
 Reference value :  2.27501e-05
 Reference value :  2.27502e-05
 Reference value :  2.27503e-05
 Reference value :  2.27505e-05
 Reference value :  2.27515e-05
 Reference value :  2.27531e-05
 Reference value :  2.27544e-05
 Reference value :  2.27564e-05
 Reference value :  2.27612e-05
 Reference value :  2.28054e-05
 Reference value :  2.30000e-05
 Reference value :  2.30011e-05
 Reference value :  2.30044e-05
 Reference value :  2.30064e-05
 Reference value :  2.30082e-05
 Reference value :  2.30107e-05
 Reference value :  2.30120e-05
 Reference value :  2.30143e-05
 Reference value :  2.30164e-05
 Reference value :  2.30185e-05
 Reference value :  2.30211e-05
 Reference value :  2.30347e-05
 Reference value :  2.30449e-05
 Reference value :  2.30543e-05
 Reference value :  2.30725e-05
 Reference value :  2.31285e-05
 Reference value :  2.32501e-05
 Reference value :  2.32502e-05
 Reference value :  2.32503e-05
 Reference value :  2.32505e-05
 Reference value :  2.32509e-05
 Reference value :  2.32515e-05
 Reference value :  2.32529e-05
 Reference value :  2.32542e-05
 Reference value :  2.32553e-05
 Reference value :  2.32569e-05
 Reference value :  2.32633e-05
 Reference value :  2.32926e-05
 Reference value :  2.34693e-05
 Reference value :  2.35000e-05
 Reference value :  2.35001e-05
 Reference value :  2.35002e-05
 Reference value :  2.35009e-05
 Reference value :  2.35024e-05
 Reference value :  2.35035e-05
 Reference value :  2.35047e-05
 Reference value :  2.35065e-05
 Reference value :  2.35083e-05
 Reference value :  2.35102e-05
 Reference value :  2.35150e-05
 Reference value :  2.35601e-05
 Reference value :  2.37501e-05
 Reference value :  2.37502e-05
 Reference value :  2.37503e-05
 Reference value :  2.37504e-05
 Reference value :  2.37510e-05
 Reference value :  2.37519e-05
 Reference value :  2.37531e-05
 Reference value :  2.37544e-05
 Reference value :  2.37557e-05
 Reference value :  2.37564e-05
 Reference value :  2.37581e-05
 Reference value :  2.37619e-05
 Reference value :  2.37729e-05
 Reference value :  2.38512e-05
 Reference value :  2.40000e-05
 Reference value :  2.40000e-05
 Reference value :  2.40001e-05
 Reference value :  2.40002e-05
 Reference value :  2.40009e-05
 Reference value :  2.40020e-05
 Reference value :  2.40024e-05
 Reference value :  2.40035e-05
 Reference value :  2.40041e-05
 Reference value :  2.40046e-05
 Reference value :  2.40058e-05
 Reference value :  2.40073e-05
 Reference value :  2.40097e-05
 Reference value :  2.40118e-05
 Reference value :  2.40138e-05
 Reference value :  2.40155e-05
 Reference value :  2.40175e-05
 Reference value :  2.40200e-05
 Reference value :  2.40279e-05
 Reference value :  2.40403e-05
 Reference value :  2.40487e-05
 Reference value :  2.40548e-05
 Reference value :  2.40690e-05
 Reference value :  2.40916e-05
 Reference value :  2.41488e-05
 Reference value :  2.42501e-05
 Reference value :  2.42502e-05
 Reference value :  2.42503e-05
 Reference value :  2.42505e-05
 Reference value :  2.42514e-05
 Reference value :  2.42524e-05
 Reference value :  2.42538e-05
 Reference value :  2.42543e-05
 Reference value :  2.42556e-05
 Reference value :  2.42572e-05
 Reference value :  2.42701e-05
 Reference value :  2.43431e-05
 Reference value :  2.45000e-05
 Reference value :  2.45001e-05
 Reference value :  2.45001e-05
 Reference value :  2.45002e-05
 Reference value :  2.45006e-05
 Reference value :  2.45015e-05
 Reference value :  2.45024e-05
 Reference value :  2.45035e-05
 Reference value :  2.45049e-05
 Reference value :  2.45064e-05
 Reference value :  2.45083e-05
 Reference value :  2.45102e-05
 Reference value :  2.45124e-05
 Reference value :  2.45429e-05
 Reference value :  2.47501e-05
 Reference value :  2.47502e-05
 Reference value :  2.47503e-05
 Reference value :  2.47505e-05
 Reference value :  2.47510e-05
 Reference value :  2.47519e-05
 Reference value :  2.47531e-05
 Reference value :  2.47544e-05
 Reference value :  2.47557e-05
 Reference value :  2.47573e-05
 Reference value :  2.47646e-05
 Reference value :  2.48054e-05
 Reference value :  2.50000e-05
 Reference value :  2.50001e-05
 Reference value :  2.50001e-05
 Reference value :  2.50003e-05
 Reference value :  2.50009e-05
 Reference value :  2.50020e-05
 Reference value :  2.50024e-05
 Reference value :  2.50035e-05
 Reference value :  2.50041e-05
 Reference value :  2.50047e-05
 Reference value :  2.50059e-05
 Reference value :  2.50074e-05
 Reference value :  2.50090e-05
 Reference value :  2.50131e-05
 Reference value :  2.50759e-05
 Reference value :  2.52501e-05
 Reference value :  2.52502e-05
 Reference value :  2.52503e-05
 Reference value :  2.52506e-05
 Reference value :  2.52516e-05
 Reference value :  2.52533e-05
 Reference value :  2.52550e-05
 Reference value :  2.52569e-05
 Reference value :  2.52602e-05
 Reference value :  2.52967e-05
 Reference value :  2.55000e-05
 Reference value :  2.55015e-05
 Reference value :  2.55045e-05
 Reference value :  2.55060e-05
 Reference value :  2.55111e-05
 Reference value :  2.55205e-05
 Reference value :  2.55253e-05
 Reference value :  2.55287e-05
 Reference value :  2.55314e-05
 Reference value :  2.55357e-05
 Reference value :  2.55386e-05
 Reference value :  2.55416e-05
 Reference value :  2.55499e-05
 Reference value :  2.55641e-05
 Reference value :  2.56106e-05
 Reference value :  2.57489e-05
 Reference value :  2.57501e-05
 Reference value :  2.57502e-05
 Reference value :  2.57503e-05
 Reference value :  2.57508e-05
 Reference value :  2.57517e-05
 Reference value :  2.57527e-05
 Reference value :  2.57539e-05
 Reference value :  2.57559e-05
 Reference value :  2.57599e-05
 Reference value :  2.57747e-05
 Reference value :  2.58859e-05
 Reference value :  2.60000e-05
 Reference value :  2.60001e-05
 Reference value :  2.60002e-05
 Reference value :  2.60009e-05
 Reference value :  2.60018e-05
 Reference value :  2.60028e-05
 Reference value :  2.60039e-05
 Reference value :  2.60064e-05
 Reference value :  2.60075e-05
 Reference value :  2.60111e-05
 Reference value :  2.60137e-05
 Reference value :  2.60192e-05
 Reference value :  2.60483e-05
 Reference value :  2.62501e-05
 Reference value :  2.62502e-05
 Reference value :  2.62502e-05
 Reference value :  2.62506e-05
 Reference value :  2.62517e-05
 Reference value :  2.62535e-05
 Reference value :  2.62546e-05
 Reference value :  2.62560e-05
 Reference value :  2.62580e-05
 Reference value :  2.62677e-05
 Reference value :  2.63228e-05
 Reference value :  2.65021e-05
 Reference value :  2.65063e-05
 Reference value :  2.65084e-05
 Reference value :  2.65122e-05
 Reference value :  2.65148e-05
 Reference value :  2.65174e-05
 Reference value :  2.65226e-05
 Reference value :  2.65503e-05
 Reference value :  2.66941e-05
 Reference value :  2.67501e-05
 Reference value :  2.67502e-05
 Reference value :  2.67502e-05
 Reference value :  2.67504e-05
 Reference value :  2.67513e-05
 Reference value :  2.67522e-05
 Reference value :  2.67527e-05
 Reference value :  2.67536e-05
 Reference value :  2.67546e-05
 Reference value :  2.67559e-05
 Reference value :  2.67600e-05
 Reference value :  2.67774e-05
 Reference value :  2.67986e-05
 Reference value :  2.68915e-05
 Reference value :  2.70000e-05
 Reference value :  2.70001e-05
 Reference value :  2.70002e-05
 Reference value :  2.70005e-05
 Reference value :  2.70013e-05
 Reference value :  2.70022e-05
 Reference value :  2.70032e-05
 Reference value :  2.70044e-05
 Reference value :  2.70052e-05
 Reference value :  2.70067e-05
 Reference value :  2.70083e-05
 Reference value :  2.70115e-05
 Reference value :  2.70413e-05
 Reference value :  2.72501e-05
 Reference value :  2.72502e-05
 Reference value :  2.72503e-05
 Reference value :  2.72506e-05
 Reference value :  2.72517e-05
 Reference value :  2.72535e-05
 Reference value :  2.72546e-05
 Reference value :  2.72560e-05
 Reference value :  2.72568e-05
 Reference value :  2.72587e-05
 Reference value :  2.72616e-05
 Reference value :  2.72801e-05
 Reference value :  2.73532e-05
 Reference value :  2.75000e-05
 Reference value :  2.75001e-05
 Reference value :  2.75002e-05
 Reference value :  2.75009e-05
 Reference value :  2.75018e-05
 Reference value :  2.75028e-05
 Reference value :  2.75039e-05
 Reference value :  2.75058e-05
 Reference value :  2.75083e-05
 Reference value :  2.75105e-05
 Reference value :  2.75115e-05
 Reference value :  2.75135e-05
 Reference value :  2.75153e-05
 Reference value :  2.75173e-05
 Reference value :  2.75196e-05
 Reference value :  2.75274e-05
 Reference value :  2.75349e-05
 Reference value :  2.75375e-05
 Reference value :  2.75419e-05
 Reference value :  2.75484e-05
 Reference value :  2.75582e-05
 Reference value :  2.75759e-05
 Reference value :  2.76523e-05
 Reference value :  2.77501e-05
 Reference value :  2.77502e-05
 Reference value :  2.77502e-05
 Reference value :  2.77503e-05
 Reference value :  2.77506e-05
 Reference value :  2.77513e-05
 Reference value :  2.77521e-05
 Reference value :  2.77535e-05
 Reference value :  2.77540e-05
 Reference value :  2.77552e-05
 Reference value :  2.77560e-05
 Reference value :  2.77583e-05
 Reference value :  2.77675e-05
 Reference value :  2.77940e-05
 Reference value :  2.80000e-05
 Reference value :  2.80020e-05
 Reference value :  2.80079e-05
 Reference value :  2.80122e-05
 Reference value :  2.80163e-05
 Reference value :  2.80279e-05
 Reference value :  2.80912e-05
 Reference value :  2.82501e-05
 Reference value :  2.82502e-05
 Reference value :  2.82502e-05
 Reference value :  2.82506e-05
 Reference value :  2.82517e-05
 Reference value :  2.82527e-05
 Reference value :  2.82536e-05
 Reference value :  2.82547e-05
 Reference value :  2.82568e-05
 Reference value :  2.82630e-05
 Reference value :  2.82933e-05
 Reference value :  2.85000e-05
 Reference value :  2.85001e-05
 Reference value :  2.85001e-05
 Reference value :  2.85003e-05
 Reference value :  2.85009e-05
 Reference value :  2.85023e-05
 Reference value :  2.85033e-05
 Reference value :  2.85045e-05
 Reference value :  2.85059e-05
 Reference value :  2.85085e-05
 Reference value :  2.85101e-05
 Reference value :  2.85128e-05
 Reference value :  2.85147e-05
 Reference value :  2.85168e-05
 Reference value :  2.85206e-05
 Reference value :  2.85304e-05
 Reference value :  2.85787e-05
 Reference value :  2.86682e-05
 Reference value :  2.87501e-05
 Reference value :  2.87502e-05
 Reference value :  2.87503e-05
 Reference value :  2.87504e-05
 Reference value :  2.87513e-05
 Reference value :  2.87521e-05
 Reference value :  2.87535e-05
 Reference value :  2.87546e-05
 Reference value :  2.87560e-05
 Reference value :  2.87602e-05
 Reference value :  2.87942e-05
 Reference value :  2.90000e-05
 Reference value :  2.90020e-05
 Reference value :  2.90079e-05
 Reference value :  2.90122e-05
 Reference value :  2.90163e-05
 Reference value :  2.90282e-05
 Reference value :  2.90660e-05
 Reference value :  2.92501e-05
 Reference value :  2.92502e-05
 Reference value :  2.92502e-05
 Reference value :  2.92503e-05
 Reference value :  2.92508e-05
 Reference value :  2.92517e-05
 Reference value :  2.92527e-05
 Reference value :  2.92536e-05
 Reference value :  2.92547e-05
 Reference value :  2.92560e-05
 Reference value :  2.92601e-05
 Reference value :  2.92933e-05
 Reference value :  2.93973e-05
 Reference value :  2.95000e-05
 Reference value :  2.95001e-05
 Reference value :  2.95001e-05
 Reference value :  2.95002e-05
 Reference value :  2.95005e-05
 Reference value :  2.95013e-05
 Reference value :  2.95028e-05
 Reference value :  2.95039e-05
 Reference value :  2.95052e-05
 Reference value :  2.95059e-05
 Reference value :  2.95075e-05
 Reference value :  2.95101e-05
 Reference value :  2.95129e-05
 Reference value :  2.95149e-05
 Reference value :  2.95171e-05
 Reference value :  2.95194e-05
 Reference value :  2.95230e-05
 Reference value :  2.95318e-05
 Reference value :  2.95388e-05
 Reference value :  2.95526e-05
 Reference value :  2.95674e-05
 Reference value :  2.95811e-05
 Reference value :  2.95948e-05
 Reference value :  2.96120e-05
 Reference value :  2.96177e-05
 Reference value :  2.96293e-05
 Reference value :  2.96475e-05
 Reference value :  2.96768e-05
 Reference value :  2.97501e-05
 Reference value :  2.97502e-05
 Reference value :  2.97502e-05
 Reference value :  2.97503e-05
 Reference value :  2.97504e-05
 Reference value :  2.97510e-05
 Reference value :  2.97519e-05
 Reference value :  2.97531e-05
 Reference value :  2.97544e-05
 Reference value :  2.97557e-05
 Reference value :  2.97574e-05
 Reference value :  2.97651e-05
 Reference value :  2.97855e-05
 Reference value :  2.98672e-05
 Reference value :  3.00000e-05
 Reference value :  3.00001e-05
 Reference value :  3.00001e-05
 Reference value :  3.00002e-05
 Reference value :  3.00006e-05
 Reference value :  3.00015e-05
 Reference value :  3.00024e-05
 Reference value :  3.00035e-05
 Reference value :  3.00049e-05
 Reference value :  3.00064e-05
 Reference value :  3.00083e-05
 Reference value :  3.00102e-05
 Reference value :  3.00125e-05
 Reference value :  3.00268e-05
 Reference value :  3.01318e-05
 Reference value :  3.02501e-05
 Reference value :  3.02502e-05
 Reference value :  3.02503e-05
 Reference value :  3.02504e-05
 Reference value :  3.02510e-05
 Reference value :  3.02519e-05
 Reference value :  3.02531e-05
 Reference value :  3.02544e-05
 Reference value :  3.02557e-05
 Reference value :  3.02564e-05
 Reference value :  3.02589e-05
 Reference value :  3.02645e-05
 Reference value :  3.03054e-05
 Reference value :  3.05000e-05
 Reference value :  3.05011e-05
 Reference value :  3.05033e-05
 Reference value :  3.05044e-05
 Reference value :  3.05064e-05
 Reference value :  3.05082e-05
 Reference value :  3.05107e-05
 Reference value :  3.05120e-05
 Reference value :  3.05143e-05
 Reference value :  3.05164e-05
 Reference value :  3.05185e-05
 Reference value :  3.05212e-05
 Reference value :  3.05257e-05
 Reference value :  3.05353e-05
 Reference value :  3.05466e-05
 Reference value :  3.05573e-05
 Reference value :  3.05696e-05
 Reference value :  3.05821e-05
 Reference value :  3.06479e-05
 Reference value :  3.07013e-05
 Reference value :  3.07191e-05
 Reference value :  3.07314e-05
 Reference value :  3.07501e-05
 Reference value :  3.07501e-05
 Reference value :  3.07502e-05
 Reference value :  3.07503e-05
 Reference value :  3.07505e-05
 Reference value :  3.07509e-05
 Reference value :  3.07515e-05
 Reference value :  3.07524e-05
 Reference value :  3.07537e-05
 Reference value :  3.07549e-05
 Reference value :  3.07563e-05
 Reference value :  3.07587e-05
 Reference value :  3.07640e-05
 Reference value :  3.07961e-05
 Reference value :  3.09693e-05
 Reference value :  3.10000e-05
 Reference value :  3.10001e-05
 Reference value :  3.10002e-05
 Reference value :  3.10009e-05
 Reference value :  3.10024e-05
 Reference value :  3.10035e-05
 Reference value :  3.10049e-05
 Reference value :  3.10064e-05
 Reference value :  3.10083e-05
 Reference value :  3.10102e-05
 Reference value :  3.10125e-05
 Reference value :  3.10269e-05
 Reference value :  3.12501e-05
 Reference value :  3.12502e-05
 Reference value :  3.12502e-05
 Reference value :  3.12504e-05
 Reference value :  3.12510e-05
 Reference value :  3.12519e-05
 Reference value :  3.12531e-05
 Reference value :  3.12544e-05
 Reference value :  3.12557e-05
 Reference value :  3.12572e-05
 Reference value :  3.12589e-05
 Reference value :  3.12707e-05
 Reference value :  3.13502e-05
 Reference value :  3.15000e-05
 Reference value :  3.15001e-05
 Reference value :  3.15001e-05
 Reference value :  3.15003e-05
 Reference value :  3.15009e-05
 Reference value :  3.15020e-05
 Reference value :  3.15030e-05
 Reference value :  3.15041e-05
 Reference value :  3.15047e-05
 Reference value :  3.15059e-05
 Reference value :  3.15087e-05
 Reference value :  3.15119e-05
 Reference value :  3.15144e-05
 Reference value :  3.15163e-05
 Reference value :  3.15188e-05
 Reference value :  3.15248e-05
 Reference value :  3.15387e-05
 Reference value :  3.15463e-05
 Reference value :  3.15503e-05
 Reference value :  3.15656e-05
 Reference value :  3.15917e-05
 Reference value :  3.17344e-05
 Reference value :  3.17501e-05
 Reference value :  3.17502e-05
 Reference value :  3.17503e-05
 Reference value :  3.17507e-05
 Reference value :  3.17519e-05
 Reference value :  3.17537e-05
 Reference value :  3.17549e-05
 Reference value :  3.17564e-05
 Reference value :  3.17611e-05
 Reference value :  3.17823e-05
 Reference value :  3.19234e-05
 Reference value :  3.20000e-05
 Reference value :  3.20001e-05
 Reference value :  3.20002e-05
 Reference value :  3.20003e-05
 Reference value :  3.20009e-05
 Reference value :  3.20024e-05
 Reference value :  3.20035e-05
 Reference value :  3.20047e-05
 Reference value :  3.20065e-05
 Reference value :  3.20083e-05
 Reference value :  3.20102e-05
 Reference value :  3.20126e-05
 Reference value :  3.20382e-05
 Reference value :  3.21928e-05
 Reference value :  3.22501e-05
 Reference value :  3.22502e-05
 Reference value :  3.22503e-05
 Reference value :  3.22507e-05
 Reference value :  3.22519e-05
 Reference value :  3.22531e-05
 Reference value :  3.22544e-05
 Reference value :  3.22564e-05
 Reference value :  3.22590e-05
 Reference value :  3.22641e-05
 Reference value :  3.22809e-05
 Reference value :  3.23514e-05
 Reference value :  3.25000e-05
 Reference value :  3.25001e-05
 Reference value :  3.25002e-05
 Reference value :  3.25009e-05
 Reference value :  3.25024e-05
 Reference value :  3.25035e-05
 Reference value :  3.25046e-05
 Reference value :  3.25058e-05
 Reference value :  3.25082e-05
 Reference value :  3.25107e-05
 Reference value :  3.25129e-05
 Reference value :  3.25138e-05
 Reference value :  3.25155e-05
 Reference value :  3.25187e-05
 Reference value :  3.25245e-05
 Reference value :  3.25403e-05
 Reference value :  3.25487e-05
 Reference value :  3.25548e-05
 Reference value :  3.25690e-05
 Reference value :  3.26060e-05
 Reference value :  3.26955e-05
 Reference value :  3.27501e-05
 Reference value :  3.27502e-05
 Reference value :  3.27503e-05
 Reference value :  3.27507e-05
 Reference value :  3.27519e-05
 Reference value :  3.27538e-05
 Reference value :  3.27550e-05
 Reference value :  3.27563e-05
 Reference value :  3.27610e-05
 Reference value :  3.27816e-05
 Reference value :  3.30000e-05
 Reference value :  3.30001e-05
 Reference value :  3.30001e-05
 Reference value :  3.30003e-05
 Reference value :  3.30015e-05
 Reference value :  3.30024e-05
 Reference value :  3.30035e-05
 Reference value :  3.30049e-05
 Reference value :  3.30064e-05
 Reference value :  3.30083e-05
 Reference value :  3.30102e-05
 Reference value :  3.30148e-05
 Reference value :  3.30735e-05
 Reference value :  3.32501e-05
 Reference value :  3.32502e-05
 Reference value :  3.32503e-05
 Reference value :  3.32507e-05
 Reference value :  3.32519e-05
 Reference value :  3.32538e-05
 Reference value :  3.32550e-05
 Reference value :  3.32573e-05
 Reference value :  3.32707e-05
 Reference value :  3.34401e-05
 Reference value :  3.35010e-05
 Reference value :  3.35041e-05
 Reference value :  3.35060e-05
 Reference value :  3.35078e-05
 Reference value :  3.35096e-05
 Reference value :  3.35118e-05
 Reference value :  3.35254e-05
 Reference value :  3.36113e-05
 Reference value :  3.37501e-05
 Reference value :  3.37502e-05
 Reference value :  3.37503e-05
 Reference value :  3.37504e-05
 Reference value :  3.37508e-05
 Reference value :  3.37518e-05
 Reference value :  3.37529e-05
 Reference value :  3.37545e-05
 Reference value :  3.37575e-05
 Reference value :  3.37643e-05
 Reference value :  3.37895e-05
 Reference value :  3.38405e-05
No. of Data Rows : 4727
ngspice-44 done
