
Note: Compatibility modes selected: hs a


Circuit: ** sch_path: /home/samantha/cace/sar-adc-using-sky130-pdk/runs/run_2025-08-29_13-28-06/parameters/power/run_01/power_consumption.sch

option SCALE: Scale is set to 1e-06 for instance and model parameters
option SCALE: Scale is set to 1e-06 for instance and model parameters
option SCALE: Scale is set to 1e-06 for instance and model parameters
option SCALE: Scale is set to 1e-06 for instance and model parameters
Doing analysis at TEMP = 27.000000 and TNOM = 27.000000

Using KLU as Direct Linear Solver
Operating point simulation skipped by 'uic',
  now using transient initial conditions.
 Reference value :  5.00000e-12
 Reference value :  5.14000e-12
 Reference value :  5.42000e-12
 Reference value :  5.98000e-12
 Reference value :  7.10000e-12
 Reference value :  8.68966e-12
 Reference value :  1.14545e-11
 Reference value :  1.60814e-11
 Reference value :  2.22067e-11
 Reference value :  5.89588e-11
 Reference value :  1.07962e-10
 Reference value :  1.98233e-10
 Reference value :  3.54359e-10
 Reference value :  5.00000e-10
 Reference value :  5.15228e-10
 Reference value :  5.45683e-10
 Reference value :  7.28414e-10
 Reference value :  9.72055e-10
 Reference value :  1.27025e-09
 Reference value :  1.62831e-09
 Reference value :  2.15439e-09
 Reference value :  2.69463e-09
 Reference value :  3.49355e-09
 Reference value :  4.39426e-09
 Reference value :  5.53057e-09
 Reference value :  6.81170e-09
 Reference value :  7.82099e-09
 Reference value :  8.84401e-09
 Reference value :  9.87536e-09
 Reference value :  1.08311e-08
 Reference value :  1.27427e-08
 Reference value :  1.54076e-08
 Reference value :  1.92506e-08
 Reference value :  2.34684e-08
 Reference value :  2.64387e-08
 Reference value :  2.93989e-08
 Reference value :  3.17166e-08
 Reference value :  3.49100e-08
 Reference value :  4.12968e-08
 Reference value :  7.96177e-08
 Reference value :  1.30712e-07
 Reference value :  1.92355e-07
 Reference value :  5.00000e-07
 Reference value :  5.24657e-07
 Reference value :  6.72598e-07
 Reference value :  8.69854e-07
 Reference value :  1.00050e-06
 Reference value :  1.00055e-06
 Reference value :  1.00065e-06
 Reference value :  1.00085e-06
 Reference value :  1.00100e-06
 Reference value :  1.00103e-06
 Reference value :  1.00109e-06
 Reference value :  1.00139e-06
 Reference value :  1.00158e-06
 Reference value :  1.00242e-06
 Reference value :  1.00283e-06
 Reference value :  1.00344e-06
 Reference value :  1.00415e-06
 Reference value :  1.00467e-06
 Reference value :  1.00526e-06
 Reference value :  1.00588e-06
 Reference value :  1.00669e-06
 Reference value :  1.00747e-06
 Reference value :  1.00878e-06
 Reference value :  1.01022e-06
 Reference value :  1.01283e-06
 Reference value :  1.02232e-06
 Reference value :  1.05050e-06
 Reference value :  1.08306e-06
 Reference value :  1.13717e-06
 Reference value :  1.45514e-06
 Reference value :  1.87909e-06
 Reference value :  2.00000e-06
 Reference value :  2.00005e-06
 Reference value :  2.00015e-06
 Reference value :  2.00035e-06
 Reference value :  2.00050e-06
 Reference value :  2.00053e-06
 Reference value :  2.00060e-06
 Reference value :  2.00074e-06
 Reference value :  2.00102e-06
 Reference value :  2.00139e-06
 Reference value :  2.00179e-06
 Reference value :  2.00217e-06
 Reference value :  2.00261e-06
 Reference value :  2.00378e-06
 Reference value :  2.00512e-06
 Reference value :  2.00618e-06
 Reference value :  2.00725e-06
 Reference value :  2.00877e-06
 Reference value :  2.00996e-06
 Reference value :  2.01121e-06
 Reference value :  2.01272e-06
 Reference value :  2.01439e-06
 Reference value :  2.01598e-06
 Reference value :  2.01794e-06
 Reference value :  2.02363e-06
 Reference value :  2.03748e-06
 Reference value :  2.05356e-06
 Reference value :  2.14679e-06
 Reference value :  2.51322e-06
 Reference value :  3.00050e-06
 Reference value :  3.00055e-06
 Reference value :  3.00065e-06
 Reference value :  3.00085e-06
 Reference value :  3.00100e-06
 Reference value :  3.00103e-06
 Reference value :  3.00110e-06
 Reference value :  3.00124e-06
 Reference value :  3.00151e-06
 Reference value :  3.00178e-06
 Reference value :  3.00219e-06
 Reference value :  3.00265e-06
 Reference value :  3.00378e-06
 Reference value :  3.00430e-06
 Reference value :  3.00492e-06
 Reference value :  3.00548e-06
 Reference value :  3.00608e-06
 Reference value :  3.00684e-06
 Reference value :  3.00765e-06
 Reference value :  3.00846e-06
 Reference value :  3.00946e-06
 Reference value :  3.01060e-06
 Reference value :  3.01223e-06
 Reference value :  3.01433e-06
 Reference value :  3.01737e-06
 Reference value :  3.02273e-06
 Reference value :  3.03026e-06
 Reference value :  3.04299e-06
 Reference value :  3.09396e-06
 Reference value :  3.26913e-06
 Reference value :  3.50269e-06
 Reference value :  4.00000e-06
 Reference value :  4.00005e-06
 Reference value :  4.00015e-06
 Reference value :  4.00035e-06
 Reference value :  4.00050e-06
 Reference value :  4.00053e-06
 Reference value :  4.00060e-06
 Reference value :  4.00074e-06
 Reference value :  4.00102e-06
 Reference value :  4.00139e-06
 Reference value :  4.00179e-06
 Reference value :  4.00221e-06
 Reference value :  4.00321e-06
 Reference value :  4.00376e-06
 Reference value :  4.00429e-06
 Reference value :  4.00488e-06
 Reference value :  4.00544e-06
 Reference value :  4.00613e-06
 Reference value :  4.00678e-06
 Reference value :  4.00858e-06
 Reference value :  4.01077e-06
 Reference value :  4.01298e-06
 Reference value :  4.01384e-06
 Reference value :  4.01467e-06
 Reference value :  4.01563e-06
 Reference value :  4.01664e-06
 Reference value :  4.01761e-06
 Reference value :  4.01878e-06
 Reference value :  4.02000e-06
 Reference value :  4.02397e-06
 Reference value :  4.03679e-06
 Reference value :  4.13483e-06
 Reference value :  4.19474e-06
 Reference value :  4.27374e-06
 Reference value :  4.50287e-06
 Reference value :  5.00050e-06
 Reference value :  5.00065e-06
 Reference value :  5.00085e-06
 Reference value :  5.00103e-06
 Reference value :  5.00124e-06
 Reference value :  5.00151e-06
 Reference value :  5.00219e-06
 Reference value :  5.00266e-06
 Reference value :  5.00314e-06
 Reference value :  5.00381e-06
 Reference value :  5.00433e-06
 Reference value :  5.00548e-06
 Reference value :  5.00607e-06
 Reference value :  5.00708e-06
 Reference value :  5.00967e-06
 Reference value :  5.01528e-06
 Reference value :  5.03556e-06
 Reference value :  5.06260e-06
 Reference value :  5.22485e-06
 Reference value :  5.87384e-06
 Reference value :  6.00005e-06
 Reference value :  6.00035e-06
 Reference value :  6.00053e-06
 Reference value :  6.00060e-06
 Reference value :  6.00074e-06
 Reference value :  6.00102e-06
 Reference value :  6.00139e-06
 Reference value :  6.00179e-06
 Reference value :  6.00217e-06
 Reference value :  6.00261e-06
 Reference value :  6.00312e-06
 Reference value :  6.00376e-06
 Reference value :  6.00442e-06
 Reference value :  6.00506e-06
 Reference value :  6.00614e-06
 Reference value :  6.00693e-06
 Reference value :  6.00781e-06
 Reference value :  6.00867e-06
 Reference value :  6.00967e-06
 Reference value :  6.01081e-06
 Reference value :  6.01198e-06
 Reference value :  6.01897e-06
 Reference value :  6.04360e-06
 Reference value :  6.13798e-06
 Reference value :  6.50259e-06
 Reference value :  7.00050e-06
 Reference value :  7.00055e-06
 Reference value :  7.00085e-06
 Reference value :  7.00103e-06
 Reference value :  7.00124e-06
 Reference value :  7.00178e-06
 Reference value :  7.00219e-06
 Reference value :  7.00265e-06
 Reference value :  7.00314e-06
 Reference value :  7.00379e-06
 Reference value :  7.00431e-06
 Reference value :  7.00492e-06
 Reference value :  7.00547e-06
 Reference value :  7.00606e-06
 Reference value :  7.00681e-06
 Reference value :  7.00762e-06
 Reference value :  7.00842e-06
 Reference value :  7.00945e-06
 Reference value :  7.01055e-06
 Reference value :  7.01220e-06
 Reference value :  7.01425e-06
 Reference value :  7.01728e-06
 Reference value :  7.02976e-06
 Reference value :  7.04198e-06
 Reference value :  7.06072e-06
 Reference value :  7.14128e-06
 Reference value :  7.44735e-06
 Reference value :  8.00000e-06
 Reference value :  8.00015e-06
 Reference value :  8.00050e-06
 Reference value :  8.00053e-06
 Reference value :  8.00074e-06
 Reference value :  8.00102e-06
 Reference value :  8.00139e-06
 Reference value :  8.00221e-06
 Reference value :  8.00267e-06
 Reference value :  8.00321e-06
 Reference value :  8.00429e-06
 Reference value :  8.00488e-06
 Reference value :  8.00544e-06
 Reference value :  8.00613e-06
 Reference value :  8.00678e-06
 Reference value :  8.00760e-06
 Reference value :  8.00969e-06
 Reference value :  8.01077e-06
 Reference value :  8.01185e-06
 Reference value :  8.01299e-06
 Reference value :  8.01384e-06
 Reference value :  8.01563e-06
 Reference value :  8.01663e-06
 Reference value :  8.01878e-06
 Reference value :  8.02183e-06
 Reference value :  8.02824e-06
 Reference value :  8.05058e-06
 Reference value :  8.10933e-06
 Reference value :  8.28017e-06
 Reference value :  8.47109e-06
 Reference value :  8.70830e-06
 Reference value :  9.00055e-06
 Reference value :  9.00085e-06
 Reference value :  9.00103e-06
 Reference value :  9.00110e-06
 Reference value :  9.00151e-06
 Reference value :  9.00219e-06
 Reference value :  9.00314e-06
 Reference value :  9.00381e-06
 Reference value :  9.00433e-06
 Reference value :  9.00493e-06
 Reference value :  9.00548e-06
 Reference value :  9.00607e-06
 Reference value :  9.00802e-06
 Reference value :  9.01186e-06
 Reference value :  9.02203e-06
 Reference value :  9.06253e-06
 Reference value :  9.22457e-06
 Reference value :  9.87271e-06
 Reference value :  1.00001e-05
 Reference value :  1.00005e-05
 Reference value :  1.00006e-05
 Reference value :  1.00010e-05
 Reference value :  1.00014e-05
 Reference value :  1.00018e-05
 Reference value :  1.00022e-05
 Reference value :  1.00031e-05
 Reference value :  1.00038e-05
 Reference value :  1.00044e-05
 Reference value :  1.00061e-05
 Reference value :  1.00069e-05
 Reference value :  1.00078e-05
 Reference value :  1.00087e-05
 Reference value :  1.00108e-05
 Reference value :  1.00143e-05
 Reference value :  1.00272e-05
 Reference value :  1.00761e-05
 Reference value :  1.02625e-05
 Reference value :  1.09860e-05
 Reference value :  1.10005e-05
 Reference value :  1.10008e-05
 Reference value :  1.10010e-05
 Reference value :  1.10011e-05
 Reference value :  1.10015e-05
 Reference value :  1.10022e-05
 Reference value :  1.10027e-05
 Reference value :  1.10031e-05
 Reference value :  1.10043e-05
 Reference value :  1.10055e-05
 Reference value :  1.10068e-05
 Reference value :  1.10076e-05
 Reference value :  1.10084e-05
 Reference value :  1.10105e-05
 Reference value :  1.10142e-05
 Reference value :  1.10225e-05
 Reference value :  1.10420e-05
 Reference value :  1.10903e-05
 Reference value :  1.12433e-05
 Reference value :  1.18553e-05
 Reference value :  1.20000e-05
 Reference value :  1.20003e-05
 Reference value :  1.20005e-05
 Reference value :  1.20006e-05
 Reference value :  1.20010e-05
 Reference value :  1.20014e-05
 Reference value :  1.20022e-05
 Reference value :  1.20027e-05
 Reference value :  1.20032e-05
 Reference value :  1.20043e-05
 Reference value :  1.20049e-05
 Reference value :  1.20054e-05
 Reference value :  1.20061e-05
 Reference value :  1.20076e-05
 Reference value :  1.20086e-05
 Reference value :  1.20108e-05
 Reference value :  1.20118e-05
 Reference value :  1.20130e-05
 Reference value :  1.20138e-05
 Reference value :  1.20156e-05
 Reference value :  1.20166e-05
 Reference value :  1.20188e-05
 Reference value :  1.20218e-05
 Reference value :  1.20282e-05
 Reference value :  1.20504e-05
 Reference value :  1.21130e-05
 Reference value :  1.22016e-05
 Reference value :  1.22279e-05
 Reference value :  1.23245e-05
 Reference value :  1.25848e-05
 Reference value :  1.30005e-05
 Reference value :  1.30006e-05
 Reference value :  1.30009e-05
 Reference value :  1.30010e-05
 Reference value :  1.30010e-05
 Reference value :  1.30012e-05
 Reference value :  1.30015e-05
 Reference value :  1.30022e-05
 Reference value :  1.30027e-05
 Reference value :  1.30038e-05
 Reference value :  1.30043e-05
 Reference value :  1.30055e-05
 Reference value :  1.30061e-05
 Reference value :  1.30080e-05
 Reference value :  1.30119e-05
 Reference value :  1.30220e-05
 Reference value :  1.30625e-05
 Reference value :  1.32244e-05
 Reference value :  1.38722e-05
 Reference value :  1.40000e-05
 Reference value :  1.40004e-05
 Reference value :  1.40005e-05
 Reference value :  1.40007e-05
 Reference value :  1.40014e-05
 Reference value :  1.40018e-05
 Reference value :  1.40022e-05
 Reference value :  1.40026e-05
 Reference value :  1.40038e-05
 Reference value :  1.40044e-05
 Reference value :  1.40061e-05
 Reference value :  1.40069e-05
 Reference value :  1.40078e-05
 Reference value :  1.40087e-05
 Reference value :  1.40108e-05
 Reference value :  1.40143e-05
 Reference value :  1.40272e-05
 Reference value :  1.40762e-05
 Reference value :  1.42630e-05
 Reference value :  1.49874e-05
 Reference value :  1.50005e-05
 Reference value :  1.50007e-05
 Reference value :  1.50010e-05
 Reference value :  1.50011e-05
 Reference value :  1.50015e-05
 Reference value :  1.50018e-05
 Reference value :  1.50022e-05
 Reference value :  1.50027e-05
 Reference value :  1.50031e-05
 Reference value :  1.50038e-05
 Reference value :  1.50043e-05
 Reference value :  1.50049e-05
 Reference value :  1.50055e-05
 Reference value :  1.50061e-05
 Reference value :  1.50068e-05
 Reference value :  1.50084e-05
 Reference value :  1.50094e-05
 Reference value :  1.50122e-05
 Reference value :  1.50173e-05
 Reference value :  1.50298e-05
 Reference value :  1.50607e-05
 Reference value :  1.51413e-05
 Reference value :  1.54475e-05
 Reference value :  1.58557e-05
 Reference value :  1.60000e-05
 Reference value :  1.60004e-05
 Reference value :  1.60005e-05
 Reference value :  1.60007e-05
 Reference value :  1.60014e-05
 Reference value :  1.60018e-05
 Reference value :  1.60022e-05
 Reference value :  1.60027e-05
 Reference value :  1.60032e-05
 Reference value :  1.60043e-05
 Reference value :  1.60049e-05
 Reference value :  1.60054e-05
 Reference value :  1.60061e-05
 Reference value :  1.60076e-05
 Reference value :  1.60097e-05
 Reference value :  1.60108e-05
 Reference value :  1.60118e-05
 Reference value :  1.60130e-05
 Reference value :  1.60139e-05
 Reference value :  1.60147e-05
 Reference value :  1.60157e-05
 Reference value :  1.60167e-05
 Reference value :  1.60177e-05
 Reference value :  1.60189e-05
 Reference value :  1.60219e-05
 Reference value :  1.60285e-05
 Reference value :  1.60372e-05
 Reference value :  1.60521e-05
 Reference value :  1.60949e-05
 Reference value :  1.61084e-05
 Reference value :  1.61259e-05
 Reference value :  1.61436e-05
 Reference value :  1.61950e-05
 Reference value :  1.62809e-05
 Reference value :  1.65970e-05
 Reference value :  1.70006e-05
 Reference value :  1.70009e-05
 Reference value :  1.70010e-05
 Reference value :  1.70010e-05
 Reference value :  1.70011e-05
 Reference value :  1.70014e-05
 Reference value :  1.70021e-05
 Reference value :  1.70026e-05
 Reference value :  1.70031e-05
 Reference value :  1.70045e-05
 Reference value :  1.70050e-05
 Reference value :  1.70062e-05
 Reference value :  1.70070e-05
 Reference value :  1.70095e-05
 Reference value :  1.70149e-05
 Reference value :  1.70323e-05
 Reference value :  1.70988e-05
 Reference value :  1.73650e-05
 Reference value :  1.80000e-05
 Reference value :  1.80002e-05
 Reference value :  1.80005e-05
 Reference value :  1.80006e-05
 Reference value :  1.80010e-05
 Reference value :  1.80015e-05
 Reference value :  1.80025e-05
 Reference value :  1.80035e-05
 Reference value :  1.80042e-05
 Reference value :  1.80055e-05
 Reference value :  1.80071e-05
 Reference value :  1.80088e-05
 Reference value :  1.80107e-05
 Reference value :  1.80118e-05
 Reference value :  1.80154e-05
 Reference value :  1.80186e-05
 Reference value :  1.80336e-05
 Reference value :  1.80797e-05
 Reference value :  1.82643e-05
 Reference value :  1.90005e-05
 Reference value :  1.90007e-05
 Reference value :  1.90009e-05
 Reference value :  1.90010e-05
 Reference value :  1.90010e-05
 Reference value :  1.90011e-05
 Reference value :  1.90012e-05
 Reference value :  1.90014e-05
 Reference value :  1.90017e-05
 Reference value :  1.90021e-05
 Reference value :  1.90026e-05
 Reference value :  1.90031e-05
 Reference value :  1.90038e-05
 Reference value :  1.90045e-05
 Reference value :  1.90050e-05
 Reference value :  1.90056e-05
