
Note: Compatibility modes selected: hs a


Circuit: ** sch_path: /home/issa/cace/sar-adc-using-sky130-pdk/runs/run_2025-09-20_12-25-48/parameters/sampling_rate/run_17/sampling_rate.sch

option SCALE: Scale is set to 1e-06 for instance and model parameters
option SCALE: Scale is set to 1e-06 for instance and model parameters
option SCALE: Scale is set to 1e-06 for instance and model parameters
option SCALE: Scale is set to 1e-06 for instance and model parameters
Doing analysis at TEMP = 27.000000 and TNOM = 27.000000

Using KLU as Direct Linear Solver
Operating point simulation skipped by 'uic',
  now using transient initial conditions.
 Reference value :  1.00000e-12
 Reference value :  1.02523e-12
 Reference value :  1.07568e-12
 Reference value :  1.17658e-12
 Reference value :  1.61439e-12
 Reference value :  2.08641e-12
 Reference value :  2.96957e-12
 Reference value :  4.05532e-12
 Reference value :  5.93124e-12
 Reference value :  8.61295e-12
 Reference value :  1.31375e-11
 Reference value :  1.89687e-11
 Reference value :  5.39557e-11
 Reference value :  1.00000e-10
 Reference value :  1.13995e-10
 Reference value :  1.32655e-10
 Reference value :  2.44613e-10
 Reference value :  3.93891e-10
 Reference value :  6.57200e-10
 Reference value :  9.19295e-10
 Reference value :  1.32489e-09
 Reference value :  1.80186e-09
 Reference value :  2.46375e-09
 Reference value :  3.14179e-09
 Reference value :  4.02121e-09
 Reference value :  5.04821e-09
 Reference value :  6.03900e-09
 Reference value :  6.65134e-09
 Reference value :  7.27565e-09
 Reference value :  7.89777e-09
 Reference value :  8.59131e-09
 Reference value :  9.35649e-09
 Reference value :  9.91939e-09
 Reference value :  1.05510e-08
 Reference value :  1.13197e-08
 Reference value :  1.21344e-08
 Reference value :  1.35148e-08
 Reference value :  1.57200e-08
 Reference value :  2.26751e-08
 Reference value :  2.61471e-08
 Reference value :  2.97873e-08
 Reference value :  3.31963e-08
 Reference value :  3.72917e-08
 Reference value :  4.28622e-08
 Reference value :  4.91073e-08
 Reference value :  5.95076e-08
 Reference value :  9.30074e-08
 Reference value :  1.28764e-07
 Reference value :  2.00277e-07
 Reference value :  2.50110e-07
 Reference value :  2.50170e-07
 Reference value :  2.50200e-07
 Reference value :  2.50208e-07
 Reference value :  2.50223e-07
 Reference value :  2.50255e-07
 Reference value :  2.50312e-07
 Reference value :  2.50542e-07
 Reference value :  2.50680e-07
 Reference value :  2.51285e-07
 Reference value :  2.51695e-07
 Reference value :  2.52120e-07
 Reference value :  2.52676e-07
 Reference value :  2.53256e-07
 Reference value :  2.53737e-07
 Reference value :  2.54791e-07
 Reference value :  2.55483e-07
 Reference value :  2.56196e-07
 Reference value :  2.57474e-07
 Reference value :  2.58749e-07
 Reference value :  2.63996e-07
 Reference value :  2.80528e-07
 Reference value :  3.33032e-07
 Reference value :  5.00000e-07
 Reference value :  5.00030e-07
 Reference value :  5.00070e-07
 Reference value :  5.00100e-07
 Reference value :  5.00124e-07
 Reference value :  5.00220e-07
 Reference value :  5.00516e-07
 Reference value :  5.00827e-07
 Reference value :  5.01187e-07
 Reference value :  5.01575e-07
 Reference value :  5.02011e-07
 Reference value :  5.02907e-07
 Reference value :  5.04017e-07
 Reference value :  5.05563e-07
 Reference value :  5.06612e-07
 Reference value :  5.07839e-07
 Reference value :  5.09008e-07
 Reference value :  5.10138e-07
 Reference value :  5.11637e-07
 Reference value :  5.13053e-07
 Reference value :  5.16583e-07
 Reference value :  5.22852e-07
 Reference value :  5.38812e-07
 Reference value :  5.83993e-07
 Reference value :  7.50100e-07
 Reference value :  7.50170e-07
 Reference value :  7.50224e-07
 Reference value :  7.50448e-07
 Reference value :  7.50986e-07
 Reference value :  7.51862e-07
 Reference value :  7.52994e-07
 Reference value :  7.53451e-07
 Reference value :  7.53976e-07
 Reference value :  7.54490e-07
 Reference value :  7.55778e-07
 Reference value :  7.60163e-07
 Reference value :  7.81320e-07
 Reference value :  9.48866e-07
 Reference value :  1.00003e-06
 Reference value :  1.00010e-06
 Reference value :  1.00016e-06
 Reference value :  1.00034e-06
 Reference value :  1.00083e-06
 Reference value :  1.00158e-06
 Reference value :  1.00242e-06
 Reference value :  1.00341e-06
 Reference value :  1.00450e-06
 Reference value :  1.00554e-06
 Reference value :  1.00709e-06
 Reference value :  1.00996e-06
 Reference value :  1.01119e-06
 Reference value :  1.01223e-06
 Reference value :  1.01429e-06
 Reference value :  1.01525e-06
 Reference value :  1.01739e-06
 Reference value :  1.02079e-06
 Reference value :  1.02403e-06
 Reference value :  1.03638e-06
 Reference value :  1.07410e-06
 Reference value :  1.25010e-06
 Reference value :  1.25013e-06
 Reference value :  1.25020e-06
 Reference value :  1.25022e-06
 Reference value :  1.25032e-06
 Reference value :  1.25069e-06
 Reference value :  1.25140e-06
 Reference value :  1.25230e-06
 Reference value :  1.25300e-06
 Reference value :  1.25346e-06
 Reference value :  1.25468e-06
 Reference value :  1.25609e-06
 Reference value :  1.25914e-06
 Reference value :  1.26591e-06
 Reference value :  1.27384e-06
 Reference value :  1.32143e-06
 Reference value :  1.50001e-06
 Reference value :  1.50007e-06
 Reference value :  1.50011e-06
 Reference value :  1.50016e-06
 Reference value :  1.50022e-06
 Reference value :  1.50034e-06
 Reference value :  1.50052e-06
 Reference value :  1.50083e-06
 Reference value :  1.50158e-06
 Reference value :  1.50242e-06
 Reference value :  1.50289e-06
 Reference value :  1.50342e-06
 Reference value :  1.50474e-06
 Reference value :  1.50616e-06
 Reference value :  1.50771e-06
 Reference value :  1.50956e-06
 Reference value :  1.51250e-06
 Reference value :  1.52992e-06
 Reference value :  1.58398e-06
 Reference value :  1.75010e-06
 Reference value :  1.75013e-06
 Reference value :  1.75020e-06
 Reference value :  1.75026e-06
 Reference value :  1.75045e-06
 Reference value :  1.75098e-06
 Reference value :  1.75140e-06
 Reference value :  1.75230e-06
 Reference value :  1.75345e-06
 Reference value :  1.75449e-06
 Reference value :  1.75580e-06
 Reference value :  1.75662e-06
 Reference value :  1.76031e-06
 Reference value :  1.78272e-06
 Reference value :  1.85890e-06
 Reference value :  2.00001e-06
 Reference value :  2.00007e-06
 Reference value :  2.00011e-06
 Reference value :  2.00016e-06
 Reference value :  2.00034e-06
 Reference value :  2.00083e-06
 Reference value :  2.00158e-06
 Reference value :  2.00242e-06
 Reference value :  2.00289e-06
 Reference value :  2.00396e-06
 Reference value :  2.00500e-06
 Reference value :  2.00631e-06
 Reference value :  2.00996e-06
 Reference value :  2.01120e-06
 Reference value :  2.01223e-06
 Reference value :  2.01429e-06
 Reference value :  2.01525e-06
 Reference value :  2.01738e-06
 Reference value :  2.02399e-06
 Reference value :  2.03631e-06
 Reference value :  2.04984e-06
 Reference value :  2.12180e-06
 Reference value :  2.25010e-06
 Reference value :  2.25017e-06
 Reference value :  2.25021e-06
 Reference value :  2.25026e-06
 Reference value :  2.25045e-06
 Reference value :  2.25069e-06
 Reference value :  2.25140e-06
 Reference value :  2.25230e-06
 Reference value :  2.25299e-06
 Reference value :  2.25345e-06
 Reference value :  2.25461e-06
 Reference value :  2.25525e-06
 Reference value :  2.25743e-06
 Reference value :  2.26529e-06
 Reference value :  2.31603e-06
 Reference value :  2.49001e-06
 Reference value :  2.50000e-06
 Reference value :  2.50003e-06
 Reference value :  2.50010e-06
 Reference value :  2.50012e-06
 Reference value :  2.50022e-06
 Reference value :  2.50052e-06
 Reference value :  2.50083e-06
 Reference value :  2.50158e-06
 Reference value :  2.50242e-06
 Reference value :  2.50290e-06
 Reference value :  2.50342e-06
 Reference value :  2.50474e-06
 Reference value :  2.50616e-06
 Reference value :  2.50771e-06
 Reference value :  2.50956e-06
 Reference value :  2.51250e-06
 Reference value :  2.52987e-06
 Reference value :  2.65614e-06
 Reference value :  2.75011e-06
 Reference value :  2.75017e-06
 Reference value :  2.75021e-06
 Reference value :  2.75026e-06
 Reference value :  2.75045e-06
 Reference value :  2.75098e-06
 Reference value :  2.75140e-06
 Reference value :  2.75229e-06
 Reference value :  2.75345e-06
 Reference value :  2.75448e-06
 Reference value :  2.75502e-06
 Reference value :  2.75580e-06
 Reference value :  2.75825e-06
 Reference value :  2.76995e-06
 Reference value :  2.80780e-06
 Reference value :  2.95917e-06
 Reference value :  3.00001e-06
 Reference value :  3.00007e-06
 Reference value :  3.00011e-06
 Reference value :  3.00016e-06
 Reference value :  3.00034e-06
 Reference value :  3.00083e-06
 Reference value :  3.00158e-06
 Reference value :  3.00242e-06
 Reference value :  3.00289e-06
 Reference value :  3.00396e-06
 Reference value :  3.00500e-06
 Reference value :  3.00631e-06
 Reference value :  3.00846e-06
 Reference value :  3.01120e-06
 Reference value :  3.01223e-06
 Reference value :  3.01429e-06
 Reference value :  3.01525e-06
 Reference value :  3.01738e-06
 Reference value :  3.02397e-06
 Reference value :  3.03400e-06
 Reference value :  3.03992e-06
 Reference value :  3.04412e-06
 Reference value :  3.05300e-06
 Reference value :  3.06435e-06
 Reference value :  3.08435e-06
 Reference value :  3.09885e-06
 Reference value :  3.13765e-06
 Reference value :  3.19093e-06
 Reference value :  3.25010e-06
 Reference value :  3.25013e-06
 Reference value :  3.25020e-06
 Reference value :  3.25026e-06
 Reference value :  3.25045e-06
 Reference value :  3.25098e-06
 Reference value :  3.25186e-06
 Reference value :  3.25299e-06
 Reference value :  3.25343e-06
 Reference value :  3.25455e-06
 Reference value :  3.25595e-06
 Reference value :  3.26146e-06
 Reference value :  3.27185e-06
 Reference value :  3.32568e-06
 Reference value :  3.34849e-06
 Reference value :  3.36419e-06
 Reference value :  3.39234e-06
 Reference value :  3.46557e-06
 Reference value :  3.50003e-06
 Reference value :  3.50010e-06
 Reference value :  3.50012e-06
 Reference value :  3.50022e-06
 Reference value :  3.50052e-06
 Reference value :  3.50119e-06
 Reference value :  3.50158e-06
 Reference value :  3.50242e-06
 Reference value :  3.50289e-06
 Reference value :  3.50342e-06
 Reference value :  3.50399e-06
 Reference value :  3.50552e-06
 Reference value :  3.50616e-06
 Reference value :  3.50771e-06
 Reference value :  3.50955e-06
 Reference value :  3.51248e-06
 Reference value :  3.52951e-06
 Reference value :  3.65187e-06
 Reference value :  3.75011e-06
 Reference value :  3.75017e-06
 Reference value :  3.75021e-06
 Reference value :  3.75032e-06
 Reference value :  3.75069e-06
 Reference value :  3.75140e-06
 Reference value :  3.75229e-06
 Reference value :  3.75344e-06
 Reference value :  3.75448e-06
 Reference value :  3.75579e-06
 Reference value :  3.75824e-06
 Reference value :  3.76991e-06
 Reference value :  3.85787e-06
 Reference value :  4.00000e-06
 Reference value :  4.00007e-06
 Reference value :  4.00011e-06
 Reference value :  4.00016e-06
 Reference value :  4.00034e-06
 Reference value :  4.00083e-06
 Reference value :  4.00158e-06
 Reference value :  4.00201e-06
 Reference value :  4.00242e-06
 Reference value :  4.00289e-06
 Reference value :  4.00396e-06
 Reference value :  4.00500e-06
 Reference value :  4.00630e-06
 Reference value :  4.00708e-06
 Reference value :  4.00845e-06
 Reference value :  4.00996e-06
 Reference value :  4.01119e-06
 Reference value :  4.01223e-06
 Reference value :  4.01428e-06
 Reference value :  4.01525e-06
 Reference value :  4.01738e-06
 Reference value :  4.01913e-06
 Reference value :  4.02397e-06
 Reference value :  4.03045e-06
 Reference value :  4.03632e-06
 Reference value :  4.04289e-06
 Reference value :  4.05207e-06
 Reference value :  4.06360e-06
 Reference value :  4.08061e-06
 Reference value :  4.13022e-06
 Reference value :  4.25010e-06
 Reference value :  4.25013e-06
 Reference value :  4.25020e-06
 Reference value :  4.25022e-06
 Reference value :  4.25045e-06
 Reference value :  4.25069e-06
 Reference value :  4.25098e-06
 Reference value :  4.25140e-06
 Reference value :  4.25229e-06
 Reference value :  4.25343e-06
 Reference value :  4.25455e-06
 Reference value :  4.25595e-06
 Reference value :  4.25878e-06
 Reference value :  4.27189e-06
 Reference value :  4.31354e-06
 Reference value :  4.48016e-06
 Reference value :  4.50003e-06
 Reference value :  4.50010e-06
 Reference value :  4.50012e-06
 Reference value :  4.50022e-06
 Reference value :  4.50052e-06
 Reference value :  4.50119e-06
 Reference value :  4.50154e-06
 Reference value :  4.50235e-06
 Reference value :  4.50282e-06
 Reference value :  4.50333e-06
 Reference value :  4.50464e-06
 Reference value :  4.50536e-06
 Reference value :  4.50598e-06
 Reference value :  4.50749e-06
 Reference value :  4.50924e-06
 Reference value :  4.51028e-06
 Reference value :  4.51144e-06
 Reference value :  4.51673e-06
 Reference value :  4.54803e-06
 Reference value :  4.64496e-06
 Reference value :  4.75013e-06
 Reference value :  4.75020e-06
 Reference value :  4.75026e-06
 Reference value :  4.75069e-06
 Reference value :  4.75098e-06
 Reference value :  4.75140e-06
 Reference value :  4.75229e-06
 Reference value :  4.75299e-06
 Reference value :  4.75344e-06
 Reference value :  4.75448e-06
 Reference value :  4.75502e-06
 Reference value :  4.75579e-06
 Reference value :  4.75750e-06
 Reference value :  4.75964e-06
 Reference value :  4.76365e-06
 Reference value :  4.76739e-06
 Reference value :  4.81982e-06
 Reference value :  5.00000e-06
 Reference value :  5.00003e-06
 Reference value :  5.00010e-06
 Reference value :  5.00016e-06
 Reference value :  5.00034e-06
 Reference value :  5.00083e-06
 Reference value :  5.00158e-06
 Reference value :  5.00242e-06
 Reference value :  5.00290e-06
 Reference value :  5.00390e-06
 Reference value :  5.00484e-06
 Reference value :  5.00593e-06
 Reference value :  5.00758e-06
 Reference value :  5.00841e-06
 Reference value :  5.00928e-06
 Reference value :  5.01015e-06
 Reference value :  5.01111e-06
 Reference value :  5.01190e-06
 Reference value :  5.01270e-06
 Reference value :  5.01355e-06
 Reference value :  5.01533e-06
 Reference value :  5.01733e-06
 Reference value :  5.02413e-06
 Reference value :  5.02814e-06
 Reference value :  5.03619e-06
 Reference value :  5.04390e-06
 Reference value :  5.05114e-06
 Reference value :  5.07111e-06
 Reference value :  5.09568e-06
 Reference value :  5.10288e-06
 Reference value :  5.11071e-06
 Reference value :  5.11973e-06
 Reference value :  5.13894e-06
 Reference value :  5.16049e-06
 Reference value :  5.24085e-06
 Reference value :  5.25011e-06
 Reference value :  5.25017e-06
 Reference value :  5.25021e-06
 Reference value :  5.25032e-06
 Reference value :  5.25069e-06
 Reference value :  5.25140e-06
 Reference value :  5.25229e-06
 Reference value :  5.25299e-06
 Reference value :  5.25395e-06
 Reference value :  5.25527e-06
 Reference value :  5.25735e-06
 Reference value :  5.26153e-06
 Reference value :  5.28614e-06
 Reference value :  5.37052e-06
 Reference value :  5.50000e-06
 Reference value :  5.50003e-06
 Reference value :  5.50010e-06
 Reference value :  5.50012e-06
 Reference value :  5.50022e-06
 Reference value :  5.50052e-06
 Reference value :  5.50083e-06
 Reference value :  5.50154e-06
 Reference value :  5.50195e-06
 Reference value :  5.50235e-06
 Reference value :  5.50282e-06
 Reference value :  5.50389e-06
 Reference value :  5.50464e-06
 Reference value :  5.50536e-06
 Reference value :  5.50598e-06
 Reference value :  5.50749e-06
 Reference value :  5.50839e-06
 Reference value :  5.51028e-06
 Reference value :  5.51670e-06
 Reference value :  5.53173e-06
 Reference value :  5.57974e-06
 Reference value :  5.64376e-06
 Reference value :  5.75011e-06
 Reference value :  5.75020e-06
 Reference value :  5.75026e-06
 Reference value :  5.75045e-06
 Reference value :  5.75069e-06
 Reference value :  5.75140e-06
 Reference value :  5.75186e-06
 Reference value :  5.75299e-06
 Reference value :  5.75344e-06
 Reference value :  5.75448e-06
 Reference value :  5.75502e-06
 Reference value :  5.75579e-06
 Reference value :  5.75749e-06
 Reference value :  5.75962e-06
 Reference value :  5.76731e-06
 Reference value :  5.81902e-06
 Reference value :  6.00000e-06
 Reference value :  6.00003e-06
 Reference value :  6.00011e-06
 Reference value :  6.00016e-06
 Reference value :  6.00034e-06
 Reference value :  6.00083e-06
 Reference value :  6.00158e-06
 Reference value :  6.00242e-06
 Reference value :  6.00342e-06
 Reference value :  6.00390e-06
 Reference value :  6.00484e-06
 Reference value :  6.00593e-06
 Reference value :  6.00758e-06
 Reference value :  6.00933e-06
 Reference value :  6.01016e-06
 Reference value :  6.01188e-06
 Reference value :  6.01349e-06
 Reference value :  6.01525e-06
 Reference value :  6.01723e-06
 Reference value :  6.01877e-06
 Reference value :  6.02295e-06
 Reference value :  6.02830e-06
 Reference value :  6.03472e-06
 Reference value :  6.03957e-06
 Reference value :  6.04637e-06
 Reference value :  6.06556e-06
 Reference value :  6.10740e-06
 Reference value :  6.12637e-06
 Reference value :  6.14208e-06
 Reference value :  6.17833e-06
 Reference value :  6.19755e-06
 Reference value :  6.23596e-06
 Reference value :  6.25011e-06
 Reference value :  6.25013e-06
 Reference value :  6.25020e-06
 Reference value :  6.25022e-06
 Reference value :  6.25032e-06
 Reference value :  6.25069e-06
 Reference value :  6.25098e-06
 Reference value :  6.25140e-06
 Reference value :  6.25186e-06
 Reference value :  6.25229e-06
 Reference value :  6.25343e-06
 Reference value :  6.25455e-06
 Reference value :  6.25595e-06
 Reference value :  6.25877e-06
 Reference value :  6.26492e-06
 Reference value :  6.31335e-06
 Reference value :  6.50000e-06
 Reference value :  6.50007e-06
 Reference value :  6.50012e-06
 Reference value :  6.50034e-06
 Reference value :  6.50083e-06
 Reference value :  6.50154e-06
 Reference value :  6.50235e-06
 Reference value :  6.50282e-06
 Reference value :  6.50388e-06
 Reference value :  6.50536e-06
 Reference value :  6.50598e-06
 Reference value :  6.50749e-06
 Reference value :  6.50924e-06
 Reference value :  6.51028e-06
 Reference value :  6.51669e-06
 Reference value :  6.54765e-06
 Reference value :  6.75010e-06
 Reference value :  6.75013e-06
 Reference value :  6.75020e-06
 Reference value :  6.75022e-06
 Reference value :  6.75032e-06
 Reference value :  6.75069e-06
 Reference value :  6.75139e-06
 Reference value :  6.75229e-06
 Reference value :  6.75344e-06
 Reference value :  6.75447e-06
 Reference value :  6.75579e-06
 Reference value :  6.75749e-06
 Reference value :  6.75962e-06
 Reference value :  6.77471e-06
 Reference value :  6.81909e-06
 Reference value :  7.00000e-06
 Reference value :  7.00003e-06
 Reference value :  7.00010e-06
 Reference value :  7.00012e-06
 Reference value :  7.00034e-06
 Reference value :  7.00083e-06
 Reference value :  7.00158e-06
 Reference value :  7.00242e-06
 Reference value :  7.00290e-06
 Reference value :  7.00342e-06
 Reference value :  7.00390e-06
 Reference value :  7.00484e-06
 Reference value :  7.00593e-06
 Reference value :  7.00758e-06
 Reference value :  7.00933e-06
 Reference value :  7.01016e-06
 Reference value :  7.01113e-06
 Reference value :  7.01188e-06
 Reference value :  7.01263e-06
 Reference value :  7.01357e-06
 Reference value :  7.01442e-06
 Reference value :  7.01535e-06
 Reference value :  7.01746e-06
 Reference value :  7.02103e-06
 Reference value :  7.02465e-06
 Reference value :  7.03289e-06
 Reference value :  7.03589e-06
 Reference value :  7.03936e-06
 Reference value :  7.04360e-06
 Reference value :  7.05743e-06
 Reference value :  7.08283e-06
 Reference value :  7.17216e-06
 Reference value :  7.25011e-06
 Reference value :  7.25017e-06
 Reference value :  7.25021e-06
 Reference value :  7.25032e-06
 Reference value :  7.25069e-06
 Reference value :  7.25140e-06
 Reference value :  7.25229e-06
 Reference value :  7.25345e-06
 Reference value :  7.25460e-06
 Reference value :  7.25597e-06
 Reference value :  7.26160e-06
 Reference value :  7.28658e-06
 Reference value :  7.48640e-06
 Reference value :  7.50003e-06
 Reference value :  7.50010e-06
 Reference value :  7.50012e-06
 Reference value :  7.50034e-06
 Reference value :  7.50083e-06
 Reference value :  7.50119e-06
 Reference value :  7.50158e-06
 Reference value :  7.50242e-06
 Reference value :  7.50290e-06
 Reference value :  7.50342e-06
 Reference value :  7.50399e-06
 Reference value :  7.50474e-06
 Reference value :  7.50552e-06
 Reference value :  7.50616e-06
 Reference value :  7.50771e-06
 Reference value :  7.50955e-06
 Reference value :  7.51548e-06
 Reference value :  7.54669e-06
 Reference value :  7.75010e-06
 Reference value :  7.75013e-06
 Reference value :  7.75017e-06
 Reference value :  7.75020e-06
 Reference value :  7.75026e-06
 Reference value :  7.75069e-06
 Reference value :  7.75139e-06
 Reference value :  7.75229e-06
 Reference value :  7.75299e-06
 Reference value :  7.75344e-06
 Reference value :  7.75447e-06
 Reference value :  7.75578e-06
 Reference value :  7.75822e-06
 Reference value :  7.76357e-06
 Reference value :  7.80699e-06
 Reference value :  7.95588e-06
 Reference value :  8.00003e-06
 Reference value :  8.00010e-06
 Reference value :  8.00016e-06
 Reference value :  8.00034e-06
 Reference value :  8.00083e-06
 Reference value :  8.00158e-06
 Reference value :  8.00242e-06
 Reference value :  8.00289e-06
 Reference value :  8.00399e-06
 Reference value :  8.00503e-06
 Reference value :  8.00558e-06
 Reference value :  8.00717e-06
 Reference value :  8.00885e-06
 Reference value :  8.01564e-06
 Reference value :  8.06463e-06
 Reference value :  8.23260e-06
 Reference value :  8.25011e-06
 Reference value :  8.25013e-06
 Reference value :  8.25020e-06
 Reference value :  8.25022e-06
 Reference value :  8.25032e-06
 Reference value :  8.25070e-06
 Reference value :  8.25139e-06
 Reference value :  8.25228e-06
 Reference value :  8.25298e-06
 Reference value :  8.25364e-06
 Reference value :  8.25452e-06
 Reference value :  8.25535e-06
 Reference value :  8.25767e-06
 Reference value :  8.26625e-06
 Reference value :  8.32168e-06
 Reference value :  8.50001e-06
 Reference value :  8.50007e-06
 Reference value :  8.50012e-06
 Reference value :  8.50035e-06
 Reference value :  8.50091e-06
 Reference value :  8.50135e-06
 Reference value :  8.50228e-06
 Reference value :  8.50335e-06
 Reference value :  8.50438e-06
 Reference value :  8.50548e-06
 Reference value :  8.50735e-06
 Reference value :  8.51652e-06
 Reference value :  8.52169e-06
 Reference value :  8.52578e-06
 Reference value :  8.52873e-06
 Reference value :  8.53143e-06
 Reference value :  8.53358e-06
 Reference value :  8.53561e-06
 Reference value :  8.53777e-06
 Reference value :  8.54226e-06
 Reference value :  8.54886e-06
 Reference value :  8.56038e-06
 Reference value :  8.57008e-06
 Reference value :  8.58165e-06
 Reference value :  8.61926e-06
 Reference value :  8.69313e-06
 Reference value :  8.75011e-06
 Reference value :  8.75013e-06
 Reference value :  8.75017e-06
 Reference value :  8.75020e-06
 Reference value :  8.75022e-06
 Reference value :  8.75032e-06
 Reference value :  8.75045e-06
 Reference value :  8.75069e-06
 Reference value :  8.75098e-06
 Reference value :  8.75139e-06
 Reference value :  8.75185e-06
 Reference value :  8.75229e-06
 Reference value :  8.75297e-06
 Reference value :  8.75343e-06
 Reference value :  8.75396e-06
 Reference value :  8.75455e-06
 Reference value :  8.75515e-06
 Reference value :  8.75729e-06
 Reference value :  8.75869e-06
 Reference value :  8.76139e-06
 Reference value :  8.76472e-06
 Reference value :  8.77138e-06
 Reference value :  8.81133e-06
 Reference value :  8.97114e-06
No. of Data Rows : 1330
ngspice-44 done
