
Note: Compatibility modes selected: hs a


Circuit: ** sch_path: /home/samantha/cace/sar-adc-using-sky130-pdk/runs/run_2025-08-29_13-06-20/parameters/power/run_2/power_consumption.sch

option SCALE: Scale is set to 1e-06 for instance and model parameters
option SCALE: Scale is set to 1e-06 for instance and model parameters
option SCALE: Scale is set to 1e-06 for instance and model parameters
option SCALE: Scale is set to 1e-06 for instance and model parameters
Doing analysis at TEMP = 27.000000 and TNOM = 27.000000

Using KLU as Direct Linear Solver
Operating point simulation skipped by 'uic',
  now using transient initial conditions.
 Reference value :  5.00000e-12
 Reference value :  5.14000e-12
 Reference value :  5.42000e-12
 Reference value :  5.98000e-12
 Reference value :  7.10000e-12
 Reference value :  8.68980e-12
 Reference value :  1.14577e-11
 Reference value :  1.60841e-11
 Reference value :  2.22164e-11
 Reference value :  3.44811e-11
 Reference value :  5.90104e-11
 Reference value :  1.08069e-10
 Reference value :  1.98298e-10
 Reference value :  3.54490e-10
 Reference value :  5.00000e-10
 Reference value :  5.15228e-10
 Reference value :  5.45684e-10
 Reference value :  7.28421e-10
 Reference value :  9.72070e-10
 Reference value :  1.27027e-09
 Reference value :  1.62834e-09
 Reference value :  2.15444e-09
 Reference value :  2.69471e-09
 Reference value :  3.49365e-09
 Reference value :  4.39434e-09
 Reference value :  5.52974e-09
 Reference value :  6.81130e-09
 Reference value :  7.82260e-09
 Reference value :  8.84607e-09
 Reference value :  9.88535e-09
 Reference value :  1.08397e-08
 Reference value :  1.27484e-08
 Reference value :  1.54181e-08
 Reference value :  1.95063e-08
 Reference value :  2.39224e-08
 Reference value :  2.71145e-08
 Reference value :  3.00267e-08
 Reference value :  3.22877e-08
 Reference value :  3.54556e-08
 Reference value :  4.10629e-08
 Reference value :  5.22775e-08
 Reference value :  7.47068e-08
 Reference value :  1.19565e-07
 Reference value :  1.79476e-07
 Reference value :  2.87652e-07
 Reference value :  5.00000e-07
 Reference value :  5.21635e-07
 Reference value :  5.64906e-07
 Reference value :  6.51446e-07
 Reference value :  8.24528e-07
 Reference value :  1.00050e-06
 Reference value :  1.00055e-06
 Reference value :  1.00065e-06
 Reference value :  1.00085e-06
 Reference value :  1.00100e-06
 Reference value :  1.00103e-06
 Reference value :  1.00109e-06
 Reference value :  1.00121e-06
 Reference value :  1.00139e-06
 Reference value :  1.00158e-06
 Reference value :  1.00197e-06
 Reference value :  1.00242e-06
 Reference value :  1.00283e-06
 Reference value :  1.00344e-06
 Reference value :  1.00415e-06
 Reference value :  1.00467e-06
 Reference value :  1.00526e-06
 Reference value :  1.00588e-06
 Reference value :  1.00669e-06
 Reference value :  1.00747e-06
 Reference value :  1.00878e-06
 Reference value :  1.01022e-06
 Reference value :  1.01283e-06
 Reference value :  1.01599e-06
 Reference value :  1.03291e-06
 Reference value :  1.05049e-06
 Reference value :  1.13712e-06
 Reference value :  1.24274e-06
 Reference value :  1.87641e-06
 Reference value :  2.00000e-06
 Reference value :  2.00005e-06
 Reference value :  2.00035e-06
 Reference value :  2.00050e-06
 Reference value :  2.00053e-06
 Reference value :  2.00060e-06
 Reference value :  2.00074e-06
 Reference value :  2.00102e-06
 Reference value :  2.00139e-06
 Reference value :  2.00179e-06
 Reference value :  2.00217e-06
 Reference value :  2.00261e-06
 Reference value :  2.00312e-06
 Reference value :  2.00378e-06
 Reference value :  2.00443e-06
 Reference value :  2.00512e-06
 Reference value :  2.00618e-06
 Reference value :  2.00725e-06
 Reference value :  2.00877e-06
 Reference value :  2.00996e-06
 Reference value :  2.01121e-06
 Reference value :  2.01272e-06
 Reference value :  2.01439e-06
 Reference value :  2.01598e-06
 Reference value :  2.01794e-06
 Reference value :  2.02005e-06
 Reference value :  2.02363e-06
 Reference value :  2.02944e-06
 Reference value :  2.03748e-06
 Reference value :  2.08572e-06
 Reference value :  2.14679e-06
 Reference value :  2.26893e-06
 Reference value :  3.00050e-06
 Reference value :  3.00055e-06
 Reference value :  3.00065e-06
 Reference value :  3.00085e-06
 Reference value :  3.00100e-06
 Reference value :  3.00103e-06
 Reference value :  3.00110e-06
 Reference value :  3.00124e-06
 Reference value :  3.00151e-06
 Reference value :  3.00178e-06
 Reference value :  3.00219e-06
 Reference value :  3.00265e-06
 Reference value :  3.00313e-06
 Reference value :  3.00378e-06
 Reference value :  3.00430e-06
 Reference value :  3.00548e-06
 Reference value :  3.00608e-06
 Reference value :  3.00684e-06
 Reference value :  3.00846e-06
 Reference value :  3.00946e-06
 Reference value :  3.01060e-06
 Reference value :  3.01223e-06
 Reference value :  3.01737e-06
 Reference value :  3.03026e-06
 Reference value :  3.04299e-06
 Reference value :  3.09396e-06
 Reference value :  3.26914e-06
 Reference value :  3.96985e-06
 Reference value :  4.00000e-06
 Reference value :  4.00005e-06
 Reference value :  4.00035e-06
 Reference value :  4.00053e-06
 Reference value :  4.00060e-06
 Reference value :  4.00074e-06
 Reference value :  4.00102e-06
 Reference value :  4.00139e-06
 Reference value :  4.00179e-06
 Reference value :  4.00221e-06
 Reference value :  4.00267e-06
 Reference value :  4.00321e-06
 Reference value :  4.00376e-06
 Reference value :  4.00429e-06
 Reference value :  4.00488e-06
 Reference value :  4.00544e-06
 Reference value :  4.00613e-06
 Reference value :  4.00760e-06
 Reference value :  4.00969e-06
 Reference value :  4.01077e-06
 Reference value :  4.01185e-06
 Reference value :  4.01298e-06
 Reference value :  4.01384e-06
 Reference value :  4.01467e-06
 Reference value :  4.01563e-06
 Reference value :  4.01664e-06
 Reference value :  4.01761e-06
 Reference value :  4.01878e-06
 Reference value :  4.02000e-06
 Reference value :  4.02183e-06
 Reference value :  4.02397e-06
 Reference value :  4.03679e-06
 Reference value :  4.05080e-06
 Reference value :  4.13483e-06
 Reference value :  4.19474e-06
 Reference value :  4.27374e-06
 Reference value :  4.38834e-06
 Reference value :  4.50287e-06
 Reference value :  4.79921e-06
 Reference value :  5.00055e-06
 Reference value :  5.00085e-06
 Reference value :  5.00103e-06
 Reference value :  5.00110e-06
 Reference value :  5.00124e-06
 Reference value :  5.00178e-06
 Reference value :  5.00219e-06
 Reference value :  5.00266e-06
 Reference value :  5.00314e-06
 Reference value :  5.00381e-06
 Reference value :  5.00433e-06
 Reference value :  5.00493e-06
 Reference value :  5.00548e-06
 Reference value :  5.00607e-06
 Reference value :  5.00708e-06
 Reference value :  5.00802e-06
 Reference value :  5.00967e-06
 Reference value :  5.01186e-06
 Reference value :  5.02204e-06
 Reference value :  5.06260e-06
 Reference value :  5.22485e-06
 Reference value :  5.87384e-06
 Reference value :  6.00005e-06
 Reference value :  6.00015e-06
 Reference value :  6.00050e-06
 Reference value :  6.00053e-06
 Reference value :  6.00060e-06
 Reference value :  6.00102e-06
 Reference value :  6.00139e-06
 Reference value :  6.00179e-06
 Reference value :  6.00217e-06
 Reference value :  6.00261e-06
 Reference value :  6.00312e-06
 Reference value :  6.00376e-06
 Reference value :  6.00442e-06
 Reference value :  6.00506e-06
 Reference value :  6.00614e-06
 Reference value :  6.00693e-06
 Reference value :  6.00781e-06
 Reference value :  6.00867e-06
 Reference value :  6.00967e-06
 Reference value :  6.01081e-06
 Reference value :  6.01198e-06
 Reference value :  6.01897e-06
 Reference value :  6.04360e-06
 Reference value :  6.13798e-06
 Reference value :  6.50259e-06
 Reference value :  7.00050e-06
 Reference value :  7.00055e-06
 Reference value :  7.00085e-06
 Reference value :  7.00103e-06
 Reference value :  7.00110e-06
 Reference value :  7.00124e-06
 Reference value :  7.00178e-06
 Reference value :  7.00219e-06
 Reference value :  7.00314e-06
 Reference value :  7.00379e-06
 Reference value :  7.00431e-06
 Reference value :  7.00492e-06
 Reference value :  7.00547e-06
 Reference value :  7.00606e-06
 Reference value :  7.00681e-06
 Reference value :  7.00842e-06
 Reference value :  7.01055e-06
 Reference value :  7.01425e-06
 Reference value :  7.02246e-06
 Reference value :  7.04198e-06
 Reference value :  7.09026e-06
 Reference value :  7.24330e-06
 Reference value :  7.85544e-06
 Reference value :  8.00005e-06
 Reference value :  8.00035e-06
 Reference value :  8.00050e-06
 Reference value :  8.00060e-06
 Reference value :  8.00102e-06
 Reference value :  8.00139e-06
 Reference value :  8.00179e-06
 Reference value :  8.00221e-06
 Reference value :  8.00267e-06
 Reference value :  8.00321e-06
 Reference value :  8.00429e-06
 Reference value :  8.00488e-06
 Reference value :  8.00544e-06
 Reference value :  8.00613e-06
 Reference value :  8.00678e-06
 Reference value :  8.00760e-06
 Reference value :  8.00969e-06
 Reference value :  8.01077e-06
 Reference value :  8.01185e-06
 Reference value :  8.01299e-06
 Reference value :  8.01384e-06
 Reference value :  8.01467e-06
 Reference value :  8.01563e-06
 Reference value :  8.01663e-06
 Reference value :  8.01761e-06
 Reference value :  8.01878e-06
 Reference value :  8.02183e-06
 Reference value :  8.02824e-06
 Reference value :  8.05058e-06
 Reference value :  8.10933e-06
 Reference value :  8.16628e-06
 Reference value :  8.28017e-06
 Reference value :  8.47109e-06
 Reference value :  8.70830e-06
 Reference value :  9.00055e-06
 Reference value :  9.00065e-06
 Reference value :  9.00085e-06
 Reference value :  9.00103e-06
 Reference value :  9.00110e-06
 Reference value :  9.00151e-06
 Reference value :  9.00178e-06
 Reference value :  9.00219e-06
 Reference value :  9.00266e-06
 Reference value :  9.00381e-06
 Reference value :  9.00433e-06
 Reference value :  9.00548e-06
 Reference value :  9.00607e-06
 Reference value :  9.00802e-06
 Reference value :  9.01186e-06
 Reference value :  9.02203e-06
 Reference value :  9.06253e-06
 Reference value :  9.22457e-06
 Reference value :  9.87271e-06
 Reference value :  1.00000e-05
 Reference value :  1.00003e-05
 Reference value :  1.00005e-05
 Reference value :  1.00007e-05
 Reference value :  1.00014e-05
 Reference value :  1.00018e-05
 Reference value :  1.00022e-05
 Reference value :  1.00031e-05
 Reference value :  1.00038e-05
 Reference value :  1.00044e-05
 Reference value :  1.00051e-05
 Reference value :  1.00061e-05
 Reference value :  1.00069e-05
 Reference value :  1.00078e-05
 Reference value :  1.00087e-05
 Reference value :  1.00108e-05
 Reference value :  1.00143e-05
 Reference value :  1.00272e-05
 Reference value :  1.00761e-05
 Reference value :  1.02625e-05
 Reference value :  1.09860e-05
 Reference value :  1.10005e-05
 Reference value :  1.10006e-05
 Reference value :  1.10010e-05
 Reference value :  1.10010e-05
 Reference value :  1.10012e-05
 Reference value :  1.10015e-05
 Reference value :  1.10022e-05
 Reference value :  1.10027e-05
 Reference value :  1.10038e-05
 Reference value :  1.10043e-05
 Reference value :  1.10049e-05
 Reference value :  1.10055e-05
 Reference value :  1.10068e-05
 Reference value :  1.10084e-05
 Reference value :  1.10094e-05
 Reference value :  1.10122e-05
 Reference value :  1.10142e-05
 Reference value :  1.10173e-05
 Reference value :  1.10225e-05
 Reference value :  1.10298e-05
 Reference value :  1.10607e-05
 Reference value :  1.11413e-05
 Reference value :  1.14473e-05
 Reference value :  1.20000e-05
 Reference value :  1.20001e-05
 Reference value :  1.20005e-05
 Reference value :  1.20006e-05
 Reference value :  1.20010e-05
 Reference value :  1.20014e-05
 Reference value :  1.20022e-05
 Reference value :  1.20027e-05
 Reference value :  1.20032e-05
 Reference value :  1.20043e-05
 Reference value :  1.20049e-05
 Reference value :  1.20054e-05
 Reference value :  1.20061e-05
 Reference value :  1.20076e-05
 Reference value :  1.20097e-05
 Reference value :  1.20108e-05
 Reference value :  1.20118e-05
 Reference value :  1.20130e-05
 Reference value :  1.20138e-05
 Reference value :  1.20147e-05
 Reference value :  1.20156e-05
 Reference value :  1.20166e-05
 Reference value :  1.20176e-05
 Reference value :  1.20188e-05
 Reference value :  1.20200e-05
 Reference value :  1.20218e-05
 Reference value :  1.20282e-05
 Reference value :  1.20504e-05
 Reference value :  1.21130e-05
 Reference value :  1.21751e-05
 Reference value :  1.22016e-05
 Reference value :  1.22279e-05
 Reference value :  1.23245e-05
 Reference value :  1.25847e-05
 Reference value :  1.30005e-05
 Reference value :  1.30007e-05
 Reference value :  1.30009e-05
 Reference value :  1.30010e-05
 Reference value :  1.30010e-05
 Reference value :  1.30011e-05
 Reference value :  1.30015e-05
 Reference value :  1.30018e-05
 Reference value :  1.30022e-05
 Reference value :  1.30027e-05
 Reference value :  1.30031e-05
 Reference value :  1.30038e-05
 Reference value :  1.30043e-05
 Reference value :  1.30049e-05
 Reference value :  1.30055e-05
 Reference value :  1.30061e-05
 Reference value :  1.30071e-05
 Reference value :  1.30080e-05
 Reference value :  1.30119e-05
 Reference value :  1.30220e-05
 Reference value :  1.30625e-05
 Reference value :  1.31165e-05
 Reference value :  1.32244e-05
 Reference value :  1.38722e-05
 Reference value :  1.40000e-05
 Reference value :  1.40000e-05
 Reference value :  1.40002e-05
 Reference value :  1.40004e-05
 Reference value :  1.40005e-05
 Reference value :  1.40005e-05
 Reference value :  1.40006e-05
 Reference value :  1.40007e-05
 Reference value :  1.40010e-05
 Reference value :  1.40014e-05
 Reference value :  1.40018e-05
 Reference value :  1.40022e-05
 Reference value :  1.40026e-05
 Reference value :  1.40031e-05
 Reference value :  1.40038e-05
 Reference value :  1.40051e-05
 Reference value :  1.40061e-05
 Reference value :  1.40069e-05
 Reference value :  1.40078e-05
 Reference value :  1.40087e-05
 Reference value :  1.40097e-05
 Reference value :  1.40108e-05
 Reference value :  1.40143e-05
 Reference value :  1.40272e-05
 Reference value :  1.40437e-05
 Reference value :  1.41384e-05
 Reference value :  1.45045e-05
 Reference value :  1.50005e-05
 Reference value :  1.50007e-05
 Reference value :  1.50010e-05
 Reference value :  1.50011e-05
 Reference value :  1.50012e-05
 Reference value :  1.50015e-05
 Reference value :  1.50018e-05
 Reference value :  1.50022e-05
 Reference value :  1.50027e-05
 Reference value :  1.50031e-05
 Reference value :  1.50038e-05
 Reference value :  1.50043e-05
 Reference value :  1.50049e-05
 Reference value :  1.50055e-05
 Reference value :  1.50061e-05
 Reference value :  1.50068e-05
 Reference value :  1.50076e-05
 Reference value :  1.50084e-05
 Reference value :  1.50094e-05
 Reference value :  1.50105e-05
 Reference value :  1.50142e-05
 Reference value :  1.50225e-05
 Reference value :  1.50420e-05
 Reference value :  1.50903e-05
 Reference value :  1.52433e-05
 Reference value :  1.58557e-05
 Reference value :  1.60000e-05
 Reference value :  1.60004e-05
 Reference value :  1.60005e-05
 Reference value :  1.60007e-05
 Reference value :  1.60014e-05
 Reference value :  1.60022e-05
 Reference value :  1.60027e-05
 Reference value :  1.60032e-05
 Reference value :  1.60043e-05
 Reference value :  1.60049e-05
 Reference value :  1.60054e-05
 Reference value :  1.60061e-05
 Reference value :  1.60076e-05
 Reference value :  1.60086e-05
 Reference value :  1.60108e-05
 Reference value :  1.60118e-05
 Reference value :  1.60130e-05
 Reference value :  1.60139e-05
 Reference value :  1.60147e-05
 Reference value :  1.60157e-05
 Reference value :  1.60167e-05
 Reference value :  1.60177e-05
 Reference value :  1.60189e-05
 Reference value :  1.60201e-05
 Reference value :  1.60219e-05
 Reference value :  1.60285e-05
 Reference value :  1.60521e-05
 Reference value :  1.60744e-05
 Reference value :  1.61132e-05
 Reference value :  1.61495e-05
 Reference value :  1.62382e-05
 Reference value :  1.64318e-05
 Reference value :  1.70005e-05
 Reference value :  1.70006e-05
 Reference value :  1.70009e-05
 Reference value :  1.70010e-05
 Reference value :  1.70010e-05
 Reference value :  1.70011e-05
 Reference value :  1.70012e-05
 Reference value :  1.70014e-05
 Reference value :  1.70021e-05
 Reference value :  1.70026e-05
 Reference value :  1.70031e-05
 Reference value :  1.70038e-05
 Reference value :  1.70045e-05
 Reference value :  1.70050e-05
 Reference value :  1.70056e-05
 Reference value :  1.70062e-05
 Reference value :  1.70070e-05
 Reference value :  1.70078e-05
 Reference value :  1.70116e-05
 Reference value :  1.70207e-05
 Reference value :  1.70545e-05
 Reference value :  1.71876e-05
 Reference value :  1.77202e-05
 Reference value :  1.80001e-05
 Reference value :  1.80004e-05
 Reference value :  1.80005e-05
 Reference value :  1.80006e-05
 Reference value :  1.80007e-05
 Reference value :  1.80015e-05
 Reference value :  1.80025e-05
 Reference value :  1.80030e-05
 Reference value :  1.80035e-05
 Reference value :  1.80042e-05
 Reference value :  1.80048e-05
 Reference value :  1.80055e-05
 Reference value :  1.80064e-05
 Reference value :  1.80071e-05
 Reference value :  1.80088e-05
 Reference value :  1.80107e-05
 Reference value :  1.80118e-05
 Reference value :  1.80154e-05
 Reference value :  1.80242e-05
 Reference value :  1.80489e-05
 Reference value :  1.81412e-05
 Reference value :  1.82643e-05
 Reference value :  1.90005e-05
 Reference value :  1.90007e-05
 Reference value :  1.90009e-05
 Reference value :  1.90010e-05
 Reference value :  1.90012e-05
 Reference value :  1.90014e-05
 Reference value :  1.90021e-05
 Reference value :  1.90031e-05
 Reference value :  1.90038e-05
 Reference value :  1.90045e-05
 Reference value :  1.90050e-05
 Reference value :  1.90056e-05
 Reference value :  1.90071e-05
 Reference value :  1.90088e-05
 Reference value :  1.90110e-05
 Reference value :  1.90148e-05
 Reference value :  1.90234e-05
 Reference value :  1.90440e-05
 Reference value :  1.90949e-05
 Reference value :  1.92557e-05
 Reference value :  1.98988e-05
 Reference value :  2.00001e-05
 Reference value :  2.00002e-05
 Reference value :  2.00005e-05
 Reference value :  2.00006e-05
 Reference value :  2.00010e-05
 Reference value :  2.00015e-05
 Reference value :  2.00020e-05
 Reference value :  2.00025e-05
 Reference value :  2.00035e-05
 Reference value :  2.00041e-05
 Reference value :  2.00046e-05
 Reference value :  2.00052e-05
 Reference value :  2.00056e-05
 Reference value :  2.00068e-05
 Reference value :  2.00076e-05
 Reference value :  2.00085e-05
 Reference value :  2.00098e-05
 Reference value :  2.00107e-05
 Reference value :  2.00128e-05
 Reference value :  2.00137e-05
 Reference value :  2.00146e-05
 Reference value :  2.00157e-05
 Reference value :  2.00166e-05
 Reference value :  2.00177e-05
 Reference value :  2.00190e-05
 Reference value :  2.00203e-05
 Reference value :  2.00222e-05
 Reference value :  2.00292e-05
 Reference value :  2.00385e-05
 Reference value :  2.00514e-05
 Reference value :  2.00576e-05
 Reference value :  2.00644e-05
 Reference value :  2.00852e-05
 Reference value :  2.00984e-05
 Reference value :  2.01079e-05
 Reference value :  2.01170e-05
 Reference value :  2.01264e-05
 Reference value :  2.01471e-05
 Reference value :  2.01909e-05
 Reference value :  2.03110e-05
 Reference value :  2.04362e-05
 Reference value :  2.06557e-05
 Reference value :  2.08963e-05
 Reference value :  2.10005e-05
 Reference value :  2.10006e-05
 Reference value :  2.10008e-05
 Reference value :  2.10010e-05
 Reference value :  2.10010e-05
 Reference value :  2.10011e-05
 Reference value :  2.10012e-05
 Reference value :  2.10014e-05
 Reference value :  2.10017e-05
 Reference value :  2.10021e-05
 Reference value :  2.10026e-05
 Reference value :  2.10031e-05
 Reference value :  2.10038e-05
 Reference value :  2.10045e-05
 Reference value :  2.10050e-05
 Reference value :  2.10057e-05
 Reference value :  2.10063e-05
 Reference value :  2.10070e-05
 Reference value :  2.10079e-05
 Reference value :  2.10095e-05
 Reference value :  2.10118e-05
 Reference value :  2.10151e-05
 Reference value :  2.10212e-05
 Reference value :  2.10332e-05
 Reference value :  2.10567e-05
 Reference value :  2.11973e-05
 Reference value :  2.13848e-05
 Reference value :  2.17599e-05
 Reference value :  2.20000e-05
 Reference value :  2.20001e-05
 Reference value :  2.20005e-05
 Reference value :  2.20006e-05
 Reference value :  2.20010e-05
 Reference value :  2.20015e-05
 Reference value :  2.20020e-05
 Reference value :  2.20025e-05
 Reference value :  2.20035e-05
 Reference value :  2.20041e-05
 Reference value :  2.20047e-05
 Reference value :  2.20062e-05
 Reference value :  2.20068e-05
 Reference value :  2.20076e-05
 Reference value :  2.20086e-05
 Reference value :  2.20095e-05
 Reference value :  2.20104e-05
 Reference value :  2.20115e-05
 Reference value :  2.20151e-05
 Reference value :  2.20267e-05
 Reference value :  2.20691e-05
 Reference value :  2.22336e-05
 Reference value :  2.28918e-05
 Reference value :  2.30005e-05
 Reference value :  2.30008e-05
 Reference value :  2.30010e-05
 Reference value :  2.30010e-05
 Reference value :  2.30012e-05
 Reference value :  2.30014e-05
 Reference value :  2.30021e-05
 Reference value :  2.30026e-05
 Reference value :  2.30038e-05
 Reference value :  2.30050e-05
 Reference value :  2.30063e-05
 Reference value :  2.30071e-05
 Reference value :  2.30095e-05
 Reference value :  2.30118e-05
 Reference value :  2.30213e-05
 Reference value :  2.30568e-05
 Reference value :  2.31925e-05
 Reference value :  2.37353e-05
 Reference value :  2.40001e-05
 Reference value :  2.40004e-05
 Reference value :  2.40005e-05
 Reference value :  2.40007e-05
 Reference value :  2.40015e-05
 Reference value :  2.40020e-05
 Reference value :  2.40025e-05
 Reference value :  2.40035e-05
 Reference value :  2.40041e-05
 Reference value :  2.40046e-05
 Reference value :  2.40056e-05
 Reference value :  2.40069e-05
 Reference value :  2.40076e-05
 Reference value :  2.40090e-05
 Reference value :  2.40106e-05
 Reference value :  2.40120e-05
 Reference value :  2.40135e-05
 Reference value :  2.40146e-05
 Reference value :  2.40155e-05
 Reference value :  2.40165e-05
 Reference value :  2.40176e-05
 Reference value :  2.40203e-05
 Reference value :  2.40223e-05
 Reference value :  2.40293e-05
 Reference value :  2.40459e-05
 Reference value :  2.40768e-05
 Reference value :  2.41099e-05
 Reference value :  2.42644e-05
 Reference value :  2.47598e-05
 Reference value :  2.50005e-05
 Reference value :  2.50008e-05
 Reference value :  2.50010e-05
 Reference value :  2.50011e-05
 Reference value :  2.50014e-05
 Reference value :  2.50021e-05
 Reference value :  2.50026e-05
 Reference value :  2.50031e-05
 Reference value :  2.50045e-05
 Reference value :  2.50050e-05
 Reference value :  2.50057e-05
 Reference value :  2.50071e-05
 Reference value :  2.50079e-05
 Reference value :  2.50118e-05
 Reference value :  2.50214e-05
 Reference value :  2.50572e-05
 Reference value :  2.51985e-05
 Reference value :  2.57638e-05
 Reference value :  2.60001e-05
 Reference value :  2.60004e-05
 Reference value :  2.60005e-05
 Reference value :  2.60007e-05
 Reference value :  2.60015e-05
 Reference value :  2.60025e-05
 Reference value :  2.60035e-05
 Reference value :  2.60047e-05
 Reference value :  2.60053e-05
 Reference value :  2.60068e-05
 Reference value :  2.60086e-05
 Reference value :  2.60095e-05
 Reference value :  2.60115e-05
 Reference value :  2.60151e-05
 Reference value :  2.60267e-05
 Reference value :  2.60688e-05
 Reference value :  2.62325e-05
 Reference value :  2.68869e-05
 Reference value :  2.70006e-05
 Reference value :  2.70009e-05
 Reference value :  2.70010e-05
 Reference value :  2.70011e-05
 Reference value :  2.70012e-05
 Reference value :  2.70014e-05
 Reference value :  2.70021e-05
 Reference value :  2.70026e-05
 Reference value :  2.70031e-05
 Reference value :  2.70038e-05
 Reference value :  2.70045e-05
 Reference value :  2.70050e-05
 Reference value :  2.70063e-05
 Reference value :  2.70071e-05
 Reference value :  2.70095e-05
 Reference value :  2.70118e-05
 Reference value :  2.70213e-05
 Reference value :  2.70566e-05
 Reference value :  2.71019e-05
 Reference value :  2.73737e-05
 Reference value :  2.80000e-05
 Reference value :  2.80001e-05
 Reference value :  2.80005e-05
 Reference value :  2.80006e-05
 Reference value :  2.80007e-05
 Reference value :  2.80015e-05
 Reference value :  2.80020e-05
 Reference value :  2.80025e-05
 Reference value :  2.80035e-05
 Reference value :  2.80041e-05
 Reference value :  2.80046e-05
 Reference value :  2.80052e-05
 Reference value :  2.80056e-05
 Reference value :  2.80069e-05
 Reference value :  2.80076e-05
 Reference value :  2.80090e-05
 Reference value :  2.80106e-05
 Reference value :  2.80120e-05
 Reference value :  2.80135e-05
 Reference value :  2.80146e-05
 Reference value :  2.80155e-05
 Reference value :  2.80165e-05
 Reference value :  2.80176e-05
 Reference value :  2.80190e-05
 Reference value :  2.80203e-05
 Reference value :  2.80223e-05
 Reference value :  2.80294e-05
 Reference value :  2.80495e-05
 Reference value :  2.80720e-05
 Reference value :  2.81679e-05
 Reference value :  2.85246e-05
 Reference value :  2.90005e-05
 Reference value :  2.90006e-05
 Reference value :  2.90009e-05
 Reference value :  2.90010e-05
 Reference value :  2.90010e-05
 Reference value :  2.90012e-05
 Reference value :  2.90014e-05
 Reference value :  2.90021e-05
 Reference value :  2.90026e-05
 Reference value :  2.90038e-05
 Reference value :  2.90045e-05
 Reference value :  2.90050e-05
 Reference value :  2.90063e-05
 Reference value :  2.90071e-05
 Reference value :  2.90079e-05
 Reference value :  2.90118e-05
 Reference value :  2.90214e-05
 Reference value :  2.90571e-05
 Reference value :  2.91979e-05
 Reference value :  2.97613e-05
 Reference value :  3.00001e-05
 Reference value :  3.00002e-05
 Reference value :  3.00005e-05
 Reference value :  3.00006e-05
 Reference value :  3.00010e-05
 Reference value :  3.00015e-05
 Reference value :  3.00020e-05
 Reference value :  3.00025e-05
 Reference value :  3.00030e-05
 Reference value :  3.00035e-05
 Reference value :  3.00041e-05
 Reference value :  3.00053e-05
 Reference value :  3.00062e-05
 Reference value :  3.00068e-05
 Reference value :  3.00086e-05
 Reference value :  3.00095e-05
 Reference value :  3.00104e-05
 Reference value :  3.00115e-05
 Reference value :  3.00151e-05
 Reference value :  3.00267e-05
 Reference value :  3.00686e-05
 Reference value :  3.02314e-05
 Reference value :  3.08826e-05
 Reference value :  3.10005e-05
 Reference value :  3.10006e-05
 Reference value :  3.10008e-05
 Reference value :  3.10010e-05
 Reference value :  3.10011e-05
 Reference value :  3.10014e-05
 Reference value :  3.10021e-05
 Reference value :  3.10026e-05
 Reference value :  3.10031e-05
 Reference value :  3.10038e-05
 Reference value :  3.10045e-05
 Reference value :  3.10050e-05
 Reference value :  3.10056e-05
 Reference value :  3.10071e-05
 Reference value :  3.10079e-05
 Reference value :  3.10118e-05
 Reference value :  3.10213e-05
 Reference value :  3.10565e-05
 Reference value :  3.11925e-05
 Reference value :  3.13738e-05
 Reference value :  3.20000e-05
 Reference value :  3.20001e-05
 Reference value :  3.20005e-05
 Reference value :  3.20005e-05
 Reference value :  3.20006e-05
 Reference value :  3.20010e-05
 Reference value :  3.20015e-05
 Reference value :  3.20020e-05
 Reference value :  3.20025e-05
 Reference value :  3.20030e-05
 Reference value :  3.20035e-05
 Reference value :  3.20041e-05
 Reference value :  3.20046e-05
 Reference value :  3.20056e-05
 Reference value :  3.20069e-05
 Reference value :  3.20076e-05
 Reference value :  3.20083e-05
 Reference value :  3.20091e-05
 Reference value :  3.20101e-05
 Reference value :  3.20132e-05
 Reference value :  3.20247e-05
 Reference value :  3.20695e-05
 Reference value :  3.22453e-05
 Reference value :  3.24797e-05
 Reference value :  3.30005e-05
 Reference value :  3.30006e-05
 Reference value :  3.30009e-05
 Reference value :  3.30010e-05
 Reference value :  3.30011e-05
 Reference value :  3.30015e-05
 Reference value :  3.30017e-05
 Reference value :  3.30022e-05
 Reference value :  3.30027e-05
 Reference value :  3.30032e-05
 Reference value :  3.30039e-05
 Reference value :  3.30046e-05
 Reference value :  3.30056e-05
 Reference value :  3.30065e-05
 Reference value :  3.30075e-05
 Reference value :  3.30090e-05
 Reference value :  3.30134e-05
 Reference value :  3.30177e-05
 Reference value :  3.30435e-05
 Reference value :  3.30780e-05
 Reference value :  3.32844e-05
 Reference value :  3.40000e-05
No. of Data Rows : 1219
ngspice-44 done
