
Note: Compatibility modes selected: hs a


Circuit: ** sch_path: /home/audrey/cace/sar-adc-using-sky130-pdk/runs/run_2025-09-07_19-09-14/parameters/sampling_rate/run_2/sampling_rate.sch

option SCALE: Scale is set to 1e-06 for instance and model parameters
option SCALE: Scale is set to 1e-06 for instance and model parameters
option SCALE: Scale is set to 1e-06 for instance and model parameters
option SCALE: Scale is set to 1e-06 for instance and model parameters
Doing analysis at TEMP = 27.000000 and TNOM = 27.000000

Using KLU as Direct Linear Solver
Operating point simulation skipped by 'uic',
  now using transient initial conditions.
 Reference value :  1.00000e-12
 Reference value :  1.02800e-12
 Reference value :  1.08400e-12
 Reference value :  1.19600e-12
 Reference value :  1.42000e-12
 Reference value :  1.72537e-12
 Reference value :  2.33612e-12
 Reference value :  3.21059e-12
 Reference value :  4.44656e-12
 Reference value :  9.59504e-12
 Reference value :  1.99805e-11
 Reference value :  3.28196e-11
 Reference value :  5.84978e-11
 Reference value :  1.00000e-10
 Reference value :  1.05136e-10
 Reference value :  1.15407e-10
 Reference value :  1.35949e-10
 Reference value :  1.77035e-10
 Reference value :  2.59205e-10
 Reference value :  4.23545e-10
 Reference value :  6.85860e-10
 Reference value :  9.80792e-10
 Reference value :  1.41235e-09
 Reference value :  1.92905e-09
 Reference value :  2.50973e-09
 Reference value :  3.30316e-09
 Reference value :  4.19851e-09
 Reference value :  5.17074e-09
 Reference value :  6.26562e-09
 Reference value :  7.01136e-09
 Reference value :  7.73334e-09
 Reference value :  8.43831e-09
 Reference value :  9.17458e-09
 Reference value :  1.01370e-08
 Reference value :  1.34902e-08
 Reference value :  1.53553e-08
 Reference value :  1.71891e-08
 Reference value :  1.86442e-08
 Reference value :  2.00105e-08
 Reference value :  2.16182e-08
 Reference value :  2.55399e-08
 Reference value :  2.95291e-08
 Reference value :  3.41035e-08
 Reference value :  4.11034e-08
 Reference value :  4.90626e-08
 Reference value :  5.53447e-08
 Reference value :  6.27374e-08
 Reference value :  6.81835e-08
 Reference value :  7.45983e-08
 Reference value :  8.09035e-08
 Reference value :  1.00367e-07
 Reference value :  1.16616e-07
 Reference value :  1.46345e-07
 Reference value :  1.99040e-07
 Reference value :  2.50100e-07
 Reference value :  2.50130e-07
 Reference value :  2.50170e-07
 Reference value :  2.50200e-07
 Reference value :  2.50208e-07
 Reference value :  2.50223e-07
 Reference value :  2.50254e-07
 Reference value :  2.50315e-07
 Reference value :  2.50409e-07
 Reference value :  2.50570e-07
 Reference value :  2.50733e-07
 Reference value :  2.51031e-07
 Reference value :  2.51907e-07
 Reference value :  2.53034e-07
 Reference value :  2.53606e-07
 Reference value :  2.54179e-07
 Reference value :  2.54768e-07
 Reference value :  2.55361e-07
 Reference value :  2.56977e-07
 Reference value :  2.58305e-07
 Reference value :  2.59762e-07
 Reference value :  2.65656e-07
 Reference value :  2.72225e-07
 Reference value :  3.01319e-07
 Reference value :  3.90564e-07
 Reference value :  5.00010e-07
 Reference value :  5.00070e-07
 Reference value :  5.00108e-07
 Reference value :  5.00124e-07
 Reference value :  5.00156e-07
 Reference value :  5.00220e-07
 Reference value :  5.00345e-07
 Reference value :  5.00864e-07
 Reference value :  5.01310e-07
 Reference value :  5.01746e-07
 Reference value :  5.02669e-07
 Reference value :  5.03217e-07
 Reference value :  5.04428e-07
 Reference value :  5.06123e-07
 Reference value :  5.07297e-07
 Reference value :  5.08718e-07
 Reference value :  5.09877e-07
 Reference value :  5.11112e-07
 Reference value :  5.12563e-07
 Reference value :  5.14005e-07
 Reference value :  5.15515e-07
 Reference value :  5.17409e-07
 Reference value :  5.22978e-07
 Reference value :  5.36554e-07
 Reference value :  5.85128e-07
 Reference value :  7.50100e-07
 Reference value :  7.50110e-07
 Reference value :  7.50130e-07
 Reference value :  7.50170e-07
 Reference value :  7.50208e-07
 Reference value :  7.50256e-07
 Reference value :  7.50448e-07
 Reference value :  7.51020e-07
 Reference value :  7.51567e-07
 Reference value :  7.52060e-07
 Reference value :  7.52584e-07
 Reference value :  7.53359e-07
 Reference value :  7.53869e-07
 Reference value :  7.54453e-07
 Reference value :  7.55026e-07
 Reference value :  7.55631e-07
 Reference value :  7.56459e-07
 Reference value :  7.57326e-07
 Reference value :  7.58279e-07
 Reference value :  7.59225e-07
 Reference value :  7.60576e-07
 Reference value :  7.64870e-07
 Reference value :  7.68563e-07
 Reference value :  7.90720e-07
 Reference value :  8.79349e-07
 Reference value :  9.97521e-07
 Reference value :  1.00001e-06
 Reference value :  1.00003e-06
 Reference value :  1.00010e-06
 Reference value :  1.00011e-06
 Reference value :  1.00016e-06
 Reference value :  1.00034e-06
 Reference value :  1.00052e-06
 Reference value :  1.00086e-06
 Reference value :  1.00131e-06
 Reference value :  1.00182e-06
 Reference value :  1.00231e-06
 Reference value :  1.00278e-06
 Reference value :  1.00334e-06
 Reference value :  1.00393e-06
 Reference value :  1.00457e-06
 Reference value :  1.00519e-06
 Reference value :  1.00576e-06
 Reference value :  1.00641e-06
 Reference value :  1.00726e-06
 Reference value :  1.00818e-06
 Reference value :  1.00935e-06
 Reference value :  1.01043e-06
 Reference value :  1.01147e-06
 Reference value :  1.01263e-06
 Reference value :  1.01351e-06
 Reference value :  1.01438e-06
 Reference value :  1.01536e-06
 Reference value :  1.01637e-06
 Reference value :  1.01737e-06
 Reference value :  1.01856e-06
 Reference value :  1.01980e-06
 Reference value :  1.02165e-06
 Reference value :  1.02378e-06
 Reference value :  1.03636e-06
 Reference value :  1.05033e-06
 Reference value :  1.13410e-06
 Reference value :  1.19446e-06
 Reference value :  1.25010e-06
 Reference value :  1.25011e-06
 Reference value :  1.25013e-06
 Reference value :  1.25020e-06
 Reference value :  1.25021e-06
 Reference value :  1.25022e-06
 Reference value :  1.25026e-06
 Reference value :  1.25032e-06
 Reference value :  1.25045e-06
 Reference value :  1.25070e-06
 Reference value :  1.25102e-06
 Reference value :  1.25156e-06
 Reference value :  1.25206e-06
 Reference value :  1.25258e-06
 Reference value :  1.25335e-06
 Reference value :  1.25386e-06
 Reference value :  1.25444e-06
 Reference value :  1.25518e-06
 Reference value :  1.25589e-06
 Reference value :  1.25671e-06
 Reference value :  1.25832e-06
 Reference value :  1.26303e-06
 Reference value :  1.26730e-06
 Reference value :  1.27585e-06
 Reference value :  1.29294e-06
 Reference value :  1.32712e-06
 Reference value :  1.39550e-06
 Reference value :  1.50000e-06
 Reference value :  1.50001e-06
 Reference value :  1.50003e-06
 Reference value :  1.50007e-06
 Reference value :  1.50010e-06
 Reference value :  1.50012e-06
 Reference value :  1.50016e-06
 Reference value :  1.50022e-06
 Reference value :  1.50034e-06
 Reference value :  1.50052e-06
 Reference value :  1.50086e-06
 Reference value :  1.50175e-06
 Reference value :  1.50223e-06
 Reference value :  1.50268e-06
 Reference value :  1.50322e-06
 Reference value :  1.50379e-06
 Reference value :  1.50442e-06
 Reference value :  1.50521e-06
 Reference value :  1.50604e-06
 Reference value :  1.50673e-06
 Reference value :  1.50746e-06
 Reference value :  1.50839e-06
 Reference value :  1.50937e-06
 Reference value :  1.51031e-06
 Reference value :  1.51145e-06
 Reference value :  1.51272e-06
 Reference value :  1.51518e-06
 Reference value :  1.51872e-06
 Reference value :  1.53666e-06
 Reference value :  1.55633e-06
 Reference value :  1.59566e-06
 Reference value :  1.75010e-06
 Reference value :  1.75011e-06
 Reference value :  1.75013e-06
 Reference value :  1.75017e-06
 Reference value :  1.75020e-06
 Reference value :  1.75022e-06
 Reference value :  1.75032e-06
 Reference value :  1.75045e-06
 Reference value :  1.75101e-06
 Reference value :  1.75156e-06
 Reference value :  1.75205e-06
 Reference value :  1.75258e-06
 Reference value :  1.75335e-06
 Reference value :  1.75386e-06
 Reference value :  1.75444e-06
 Reference value :  1.75501e-06
 Reference value :  1.75561e-06
 Reference value :  1.75646e-06
 Reference value :  1.75737e-06
 Reference value :  1.75926e-06
 Reference value :  1.76065e-06
 Reference value :  1.76499e-06
 Reference value :  1.77614e-06
 Reference value :  1.82074e-06
 Reference value :  1.99916e-06
 Reference value :  2.00001e-06
 Reference value :  2.00007e-06
 Reference value :  2.00011e-06
 Reference value :  2.00016e-06
 Reference value :  2.00022e-06
 Reference value :  2.00052e-06
 Reference value :  2.00086e-06
 Reference value :  2.00131e-06
 Reference value :  2.00182e-06
 Reference value :  2.00231e-06
 Reference value :  2.00278e-06
 Reference value :  2.00334e-06
 Reference value :  2.00393e-06
 Reference value :  2.00457e-06
 Reference value :  2.00518e-06
 Reference value :  2.00575e-06
 Reference value :  2.00641e-06
 Reference value :  2.00726e-06
 Reference value :  2.00818e-06
 Reference value :  2.00935e-06
 Reference value :  2.01043e-06
 Reference value :  2.01147e-06
 Reference value :  2.01263e-06
 Reference value :  2.01351e-06
 Reference value :  2.01437e-06
 Reference value :  2.01536e-06
 Reference value :  2.01637e-06
 Reference value :  2.01737e-06
 Reference value :  2.01856e-06
 Reference value :  2.01979e-06
 Reference value :  2.02165e-06
 Reference value :  2.02802e-06
 Reference value :  2.03623e-06
 Reference value :  2.04991e-06
 Reference value :  2.10828e-06
 Reference value :  2.22967e-06
 Reference value :  2.25011e-06
 Reference value :  2.25017e-06
 Reference value :  2.25021e-06
 Reference value :  2.25026e-06
 Reference value :  2.25045e-06
 Reference value :  2.25070e-06
 Reference value :  2.25151e-06
 Reference value :  2.25203e-06
 Reference value :  2.25252e-06
 Reference value :  2.25326e-06
 Reference value :  2.25378e-06
 Reference value :  2.25436e-06
 Reference value :  2.25495e-06
 Reference value :  2.25641e-06
 Reference value :  2.25924e-06
 Reference value :  2.26525e-06
 Reference value :  2.28534e-06
 Reference value :  2.36569e-06
 Reference value :  2.50000e-06
 Reference value :  2.50003e-06
 Reference value :  2.50010e-06
 Reference value :  2.50012e-06
 Reference value :  2.50022e-06
 Reference value :  2.50052e-06
 Reference value :  2.50086e-06
 Reference value :  2.50131e-06
 Reference value :  2.50175e-06
 Reference value :  2.50223e-06
 Reference value :  2.50268e-06
 Reference value :  2.50322e-06
 Reference value :  2.50379e-06
 Reference value :  2.50521e-06
 Reference value :  2.50604e-06
 Reference value :  2.50673e-06
 Reference value :  2.50746e-06
 Reference value :  2.50840e-06
 Reference value :  2.50937e-06
 Reference value :  2.51032e-06
 Reference value :  2.51145e-06
 Reference value :  2.51517e-06
 Reference value :  2.52507e-06
 Reference value :  2.55548e-06
 Reference value :  2.59388e-06
 Reference value :  2.75010e-06
 Reference value :  2.75011e-06
 Reference value :  2.75013e-06
 Reference value :  2.75020e-06
 Reference value :  2.75022e-06
 Reference value :  2.75032e-06
 Reference value :  2.75070e-06
 Reference value :  2.75101e-06
 Reference value :  2.75150e-06
 Reference value :  2.75202e-06
 Reference value :  2.75252e-06
 Reference value :  2.75326e-06
 Reference value :  2.75378e-06
 Reference value :  2.75490e-06
 Reference value :  2.75549e-06
 Reference value :  2.75627e-06
 Reference value :  2.75712e-06
 Reference value :  2.75794e-06
 Reference value :  2.75894e-06
 Reference value :  2.76167e-06
 Reference value :  2.76711e-06
 Reference value :  2.78166e-06
 Reference value :  2.79611e-06
 Reference value :  2.87023e-06
 Reference value :  3.00000e-06
 Reference value :  3.00003e-06
 Reference value :  3.00010e-06
 Reference value :  3.00012e-06
 Reference value :  3.00016e-06
 Reference value :  3.00034e-06
 Reference value :  3.00086e-06
 Reference value :  3.00131e-06
 Reference value :  3.00182e-06
 Reference value :  3.00231e-06
 Reference value :  3.00278e-06
 Reference value :  3.00334e-06
 Reference value :  3.00393e-06
 Reference value :  3.00457e-06
 Reference value :  3.00518e-06
 Reference value :  3.00575e-06
 Reference value :  3.00641e-06
 Reference value :  3.00725e-06
 Reference value :  3.00817e-06
 Reference value :  3.00935e-06
 Reference value :  3.01043e-06
 Reference value :  3.01146e-06
 Reference value :  3.01263e-06
 Reference value :  3.01351e-06
 Reference value :  3.01437e-06
 Reference value :  3.01535e-06
 Reference value :  3.01637e-06
 Reference value :  3.01737e-06
 Reference value :  3.01856e-06
 Reference value :  3.02165e-06
 Reference value :  3.02798e-06
 Reference value :  3.03345e-06
 Reference value :  3.03869e-06
 Reference value :  3.04458e-06
 Reference value :  3.04830e-06
 Reference value :  3.05176e-06
 Reference value :  3.05441e-06
 Reference value :  3.05747e-06
 Reference value :  3.06754e-06
 Reference value :  3.07632e-06
 Reference value :  3.08563e-06
 Reference value :  3.10490e-06
 Reference value :  3.12478e-06
 Reference value :  3.17834e-06
 Reference value :  3.24127e-06
 Reference value :  3.25011e-06
 Reference value :  3.25013e-06
 Reference value :  3.25020e-06
 Reference value :  3.25022e-06
 Reference value :  3.25032e-06
 Reference value :  3.25045e-06
 Reference value :  3.25070e-06
 Reference value :  3.25101e-06
 Reference value :  3.25150e-06
 Reference value :  3.25202e-06
 Reference value :  3.25326e-06
 Reference value :  3.25378e-06
 Reference value :  3.25439e-06
 Reference value :  3.25497e-06
 Reference value :  3.25560e-06
 Reference value :  3.25647e-06
 Reference value :  3.25770e-06
 Reference value :  3.25928e-06
 Reference value :  3.26537e-06
 Reference value :  3.27238e-06
 Reference value :  3.31448e-06
 Reference value :  3.48288e-06
 Reference value :  3.50000e-06
 Reference value :  3.50003e-06
 Reference value :  3.50007e-06
 Reference value :  3.50010e-06
 Reference value :  3.50011e-06
 Reference value :  3.50012e-06
 Reference value :  3.50016e-06
 Reference value :  3.50022e-06
 Reference value :  3.50034e-06
 Reference value :  3.50052e-06
 Reference value :  3.50086e-06
 Reference value :  3.50131e-06
 Reference value :  3.50182e-06
 Reference value :  3.50231e-06
 Reference value :  3.50278e-06
 Reference value :  3.50333e-06
 Reference value :  3.50391e-06
 Reference value :  3.50455e-06
 Reference value :  3.50549e-06
 Reference value :  3.50638e-06
 Reference value :  3.50718e-06
 Reference value :  3.50805e-06
 Reference value :  3.50888e-06
 Reference value :  3.50982e-06
 Reference value :  3.51087e-06
 Reference value :  3.51200e-06
 Reference value :  3.51875e-06
 Reference value :  3.54552e-06
 Reference value :  3.58122e-06
 Reference value :  3.75010e-06
 Reference value :  3.75011e-06
 Reference value :  3.75017e-06
 Reference value :  3.75020e-06
 Reference value :  3.75022e-06
 Reference value :  3.75032e-06
 Reference value :  3.75045e-06
 Reference value :  3.75070e-06
 Reference value :  3.75101e-06
 Reference value :  3.75150e-06
 Reference value :  3.75202e-06
 Reference value :  3.75251e-06
 Reference value :  3.75325e-06
 Reference value :  3.75377e-06
 Reference value :  3.75437e-06
 Reference value :  3.75490e-06
 Reference value :  3.75627e-06
 Reference value :  3.75711e-06
 Reference value :  3.76088e-06
 Reference value :  3.76413e-06
 Reference value :  3.76990e-06
 Reference value :  3.80456e-06
 Reference value :  3.94317e-06
 Reference value :  4.00000e-06
 Reference value :  4.00001e-06
 Reference value :  4.00007e-06
 Reference value :  4.00010e-06
 Reference value :  4.00012e-06
 Reference value :  4.00022e-06
 Reference value :  4.00052e-06
 Reference value :  4.00086e-06
 Reference value :  4.00131e-06
 Reference value :  4.00182e-06
 Reference value :  4.00231e-06
 Reference value :  4.00278e-06
 Reference value :  4.00332e-06
 Reference value :  4.00390e-06
 Reference value :  4.00449e-06
 Reference value :  4.00584e-06
 Reference value :  4.00650e-06
 Reference value :  4.00747e-06
 Reference value :  4.00836e-06
 Reference value :  4.00976e-06
 Reference value :  4.01278e-06
 Reference value :  4.01389e-06
 Reference value :  4.01496e-06
 Reference value :  4.01611e-06
 Reference value :  4.01716e-06
 Reference value :  4.01945e-06
 Reference value :  4.02311e-06
 Reference value :  4.02660e-06
 Reference value :  4.04011e-06
 Reference value :  4.07882e-06
 Reference value :  4.14029e-06
 Reference value :  4.17656e-06
 Reference value :  4.25010e-06
 Reference value :  4.25013e-06
 Reference value :  4.25020e-06
 Reference value :  4.25022e-06
 Reference value :  4.25026e-06
 Reference value :  4.25045e-06
 Reference value :  4.25101e-06
 Reference value :  4.25150e-06
 Reference value :  4.25251e-06
 Reference value :  4.25325e-06
 Reference value :  4.25378e-06
 Reference value :  4.25497e-06
 Reference value :  4.25647e-06
 Reference value :  4.25927e-06
 Reference value :  4.26534e-06
 Reference value :  4.27237e-06
 Reference value :  4.31455e-06
 Reference value :  4.37079e-06
 Reference value :  4.50000e-06
 Reference value :  4.50003e-06
 Reference value :  4.50010e-06
 Reference value :  4.50012e-06
 Reference value :  4.50022e-06
 Reference value :  4.50052e-06
 Reference value :  4.50086e-06
 Reference value :  4.50182e-06
 Reference value :  4.50278e-06
 Reference value :  4.50333e-06
 Reference value :  4.50391e-06
 Reference value :  4.50455e-06
 Reference value :  4.50550e-06
 Reference value :  4.50639e-06
 Reference value :  4.50719e-06
 Reference value :  4.50806e-06
 Reference value :  4.50889e-06
 Reference value :  4.51087e-06
 Reference value :  4.51425e-06
 Reference value :  4.51876e-06
 Reference value :  4.52768e-06
 Reference value :  4.58122e-06
 Reference value :  4.75010e-06
 Reference value :  4.75011e-06
 Reference value :  4.75017e-06
 Reference value :  4.75020e-06
 Reference value :  4.75021e-06
 Reference value :  4.75022e-06
 Reference value :  4.75026e-06
 Reference value :  4.75032e-06
 Reference value :  4.75045e-06
 Reference value :  4.75070e-06
 Reference value :  4.75101e-06
 Reference value :  4.75150e-06
 Reference value :  4.75202e-06
 Reference value :  4.75251e-06
 Reference value :  4.75325e-06
 Reference value :  4.75377e-06
 Reference value :  4.75436e-06
 Reference value :  4.75490e-06
 Reference value :  4.75548e-06
 Reference value :  4.75626e-06
 Reference value :  4.75711e-06
 Reference value :  4.75878e-06
 Reference value :  4.76088e-06
 Reference value :  4.76412e-06
 Reference value :  4.76988e-06
 Reference value :  4.78142e-06
 Reference value :  4.80450e-06
 Reference value :  4.85065e-06
 Reference value :  4.94294e-06
 Reference value :  5.00000e-06
 Reference value :  5.00001e-06
 Reference value :  5.00003e-06
 Reference value :  5.00007e-06
 Reference value :  5.00010e-06
 Reference value :  5.00011e-06
 Reference value :  5.00012e-06
 Reference value :  5.00016e-06
 Reference value :  5.00022e-06
 Reference value :  5.00034e-06
 Reference value :  5.00052e-06
 Reference value :  5.00086e-06
 Reference value :  5.00131e-06
 Reference value :  5.00182e-06
 Reference value :  5.00231e-06
 Reference value :  5.00278e-06
 Reference value :  5.00332e-06
 Reference value :  5.00390e-06
 Reference value :  5.00449e-06
 Reference value :  5.00521e-06
 Reference value :  5.00584e-06
 Reference value :  5.00650e-06
 Reference value :  5.00747e-06
 Reference value :  5.00837e-06
 Reference value :  5.00976e-06
 Reference value :  5.01132e-06
 Reference value :  5.01278e-06
 Reference value :  5.01389e-06
 Reference value :  5.01496e-06
 Reference value :  5.01611e-06
 Reference value :  5.01716e-06
 Reference value :  5.01825e-06
 Reference value :  5.01946e-06
 Reference value :  5.02137e-06
 Reference value :  5.02312e-06
 Reference value :  5.02660e-06
 Reference value :  5.03192e-06
 Reference value :  5.04012e-06
 Reference value :  5.05515e-06
 Reference value :  5.06944e-06
 Reference value :  5.10201e-06
 Reference value :  5.13674e-06
 Reference value :  5.19102e-06
 Reference value :  5.24542e-06
 Reference value :  5.25010e-06
 Reference value :  5.25011e-06
 Reference value :  5.25013e-06
 Reference value :  5.25017e-06
 Reference value :  5.25020e-06
 Reference value :  5.25021e-06
 Reference value :  5.25022e-06
 Reference value :  5.25026e-06
 Reference value :  5.25045e-06
 Reference value :  5.25070e-06
 Reference value :  5.25101e-06
 Reference value :  5.25150e-06
 Reference value :  5.25202e-06
 Reference value :  5.25251e-06
 Reference value :  5.25325e-06
 Reference value :  5.25378e-06
 Reference value :  5.25439e-06
 Reference value :  5.25497e-06
 Reference value :  5.25559e-06
 Reference value :  5.25647e-06
 Reference value :  5.25768e-06
 Reference value :  5.25927e-06
 Reference value :  5.26182e-06
 Reference value :  5.26534e-06
 Reference value :  5.27237e-06
 Reference value :  5.28643e-06
 Reference value :  5.37080e-06
 Reference value :  5.48329e-06
 Reference value :  5.50000e-06
 Reference value :  5.50001e-06
 Reference value :  5.50003e-06
 Reference value :  5.50007e-06
 Reference value :  5.50010e-06
 Reference value :  5.50011e-06
 Reference value :  5.50012e-06
 Reference value :  5.50016e-06
 Reference value :  5.50034e-06
 Reference value :  5.50052e-06
 Reference value :  5.50086e-06
 Reference value :  5.50131e-06
 Reference value :  5.50182e-06
 Reference value :  5.50231e-06
 Reference value :  5.50278e-06
 Reference value :  5.50333e-06
 Reference value :  5.50391e-06
 Reference value :  5.50455e-06
 Reference value :  5.50550e-06
 Reference value :  5.50639e-06
 Reference value :  5.50719e-06
 Reference value :  5.50806e-06
 Reference value :  5.50889e-06
 Reference value :  5.51088e-06
 Reference value :  5.51425e-06
 Reference value :  5.52767e-06
 Reference value :  5.58119e-06
 Reference value :  5.75010e-06
 Reference value :  5.75011e-06
 Reference value :  5.75013e-06
 Reference value :  5.75017e-06
 Reference value :  5.75020e-06
 Reference value :  5.75021e-06
 Reference value :  5.75026e-06
 Reference value :  5.75032e-06
 Reference value :  5.75045e-06
 Reference value :  5.75070e-06
 Reference value :  5.75101e-06
 Reference value :  5.75150e-06
 Reference value :  5.75202e-06
 Reference value :  5.75251e-06
 Reference value :  5.75325e-06
 Reference value :  5.75377e-06
 Reference value :  5.75436e-06
 Reference value :  5.75490e-06
 Reference value :  5.75548e-06
 Reference value :  5.75626e-06
 Reference value :  5.75711e-06
 Reference value :  5.76087e-06
 Reference value :  5.76986e-06
 Reference value :  5.78137e-06
 Reference value :  5.80439e-06
 Reference value :  5.85043e-06
 Reference value :  6.00000e-06
 Reference value :  6.00003e-06
 Reference value :  6.00007e-06
 Reference value :  6.00011e-06
 Reference value :  6.00012e-06
 Reference value :  6.00016e-06
 Reference value :  6.00022e-06
 Reference value :  6.00034e-06
 Reference value :  6.00052e-06
 Reference value :  6.00086e-06
 Reference value :  6.00131e-06
 Reference value :  6.00182e-06
 Reference value :  6.00231e-06
 Reference value :  6.00278e-06
 Reference value :  6.00332e-06
 Reference value :  6.00449e-06
 Reference value :  6.00521e-06
 Reference value :  6.00584e-06
 Reference value :  6.00650e-06
 Reference value :  6.00836e-06
 Reference value :  6.00975e-06
 Reference value :  6.01132e-06
 Reference value :  6.01278e-06
 Reference value :  6.01389e-06
 Reference value :  6.01496e-06
 Reference value :  6.01611e-06
 Reference value :  6.01716e-06
 Reference value :  6.01825e-06
 Reference value :  6.01946e-06
 Reference value :  6.02138e-06
 Reference value :  6.02312e-06
 Reference value :  6.02661e-06
 Reference value :  6.03646e-06
 Reference value :  6.04365e-06
 Reference value :  6.04821e-06
 Reference value :  6.05326e-06
 Reference value :  6.05936e-06
 Reference value :  6.06522e-06
 Reference value :  6.07213e-06
 Reference value :  6.07849e-06
 Reference value :  6.10568e-06
 Reference value :  6.16717e-06
 Reference value :  6.21095e-06
 Reference value :  6.25010e-06
 Reference value :  6.25011e-06
 Reference value :  6.25013e-06
 Reference value :  6.25017e-06
 Reference value :  6.25020e-06
 Reference value :  6.25022e-06
 Reference value :  6.25026e-06
 Reference value :  6.25032e-06
 Reference value :  6.25045e-06
 Reference value :  6.25070e-06
 Reference value :  6.25101e-06
 Reference value :  6.25150e-06
 Reference value :  6.25202e-06
 Reference value :  6.25251e-06
 Reference value :  6.25325e-06
 Reference value :  6.25375e-06
 Reference value :  6.25432e-06
 Reference value :  6.25493e-06
 Reference value :  6.25556e-06
 Reference value :  6.25638e-06
 Reference value :  6.25778e-06
 Reference value :  6.26197e-06
 Reference value :  6.27167e-06
 Reference value :  6.31051e-06
 Reference value :  6.36229e-06
 Reference value :  6.50000e-06
 Reference value :  6.50003e-06
 Reference value :  6.50010e-06
 Reference value :  6.50011e-06
 Reference value :  6.50016e-06
 Reference value :  6.50022e-06
 Reference value :  6.50034e-06
 Reference value :  6.50052e-06
 Reference value :  6.50086e-06
 Reference value :  6.50131e-06
 Reference value :  6.50175e-06
 Reference value :  6.50223e-06
 Reference value :  6.50268e-06
 Reference value :  6.50322e-06
 Reference value :  6.50379e-06
 Reference value :  6.50442e-06
 Reference value :  6.50521e-06
 Reference value :  6.50604e-06
 Reference value :  6.50673e-06
 Reference value :  6.50746e-06
 Reference value :  6.50840e-06
 Reference value :  6.51032e-06
 Reference value :  6.51145e-06
 Reference value :  6.51512e-06
 Reference value :  6.51856e-06
 Reference value :  6.53566e-06
 Reference value :  6.55412e-06
 Reference value :  6.66487e-06
 Reference value :  6.75010e-06
 Reference value :  6.75013e-06
 Reference value :  6.75020e-06
 Reference value :  6.75022e-06
 Reference value :  6.75032e-06
 Reference value :  6.75070e-06
 Reference value :  6.75150e-06
 Reference value :  6.75202e-06
 Reference value :  6.75325e-06
 Reference value :  6.75377e-06
 Reference value :  6.75436e-06
 Reference value :  6.75490e-06
 Reference value :  6.75626e-06
 Reference value :  6.75792e-06
 Reference value :  6.76017e-06
 Reference value :  6.76165e-06
 Reference value :  6.76406e-06
 Reference value :  6.76706e-06
 Reference value :  6.77306e-06
 Reference value :  6.79575e-06
 Reference value :  6.86668e-06
 Reference value :  6.95901e-06
 Reference value :  7.00001e-06
 Reference value :  7.00003e-06
 Reference value :  7.00007e-06
 Reference value :  7.00010e-06
 Reference value :  7.00011e-06
 Reference value :  7.00016e-06
 Reference value :  7.00022e-06
 Reference value :  7.00034e-06
 Reference value :  7.00052e-06
 Reference value :  7.00086e-06
 Reference value :  7.00131e-06
 Reference value :  7.00231e-06
 Reference value :  7.00278e-06
 Reference value :  7.00334e-06
 Reference value :  7.00393e-06
 Reference value :  7.00457e-06
 Reference value :  7.00518e-06
 Reference value :  7.00575e-06
 Reference value :  7.00641e-06
 Reference value :  7.00725e-06
 Reference value :  7.00934e-06
 Reference value :  7.01042e-06
 Reference value :  7.01146e-06
 Reference value :  7.01262e-06
 Reference value :  7.01349e-06
 Reference value :  7.01433e-06
 Reference value :  7.01541e-06
 Reference value :  7.01642e-06
 Reference value :  7.01748e-06
 Reference value :  7.01870e-06
 Reference value :  7.02188e-06
 Reference value :  7.02427e-06
 Reference value :  7.03235e-06
 Reference value :  7.04129e-06
 Reference value :  7.05919e-06
 Reference value :  7.14241e-06
 Reference value :  7.21873e-06
 Reference value :  7.25011e-06
 Reference value :  7.25013e-06
 Reference value :  7.25017e-06
 Reference value :  7.25020e-06
 Reference value :  7.25021e-06
 Reference value :  7.25022e-06
 Reference value :  7.25026e-06
 Reference value :  7.25032e-06
 Reference value :  7.25045e-06
 Reference value :  7.25070e-06
 Reference value :  7.25101e-06
 Reference value :  7.25150e-06
 Reference value :  7.25202e-06
 Reference value :  7.25251e-06
 Reference value :  7.25325e-06
 Reference value :  7.25377e-06
 Reference value :  7.25436e-06
 Reference value :  7.25494e-06
 Reference value :  7.25556e-06
 Reference value :  7.25641e-06
 Reference value :  7.25767e-06
 Reference value :  7.25918e-06
 Reference value :  7.26511e-06
 Reference value :  7.27178e-06
 Reference value :  7.31185e-06
 Reference value :  7.47209e-06
 Reference value :  7.50001e-06
 Reference value :  7.50003e-06
 Reference value :  7.50010e-06
 Reference value :  7.50012e-06
 Reference value :  7.50016e-06
 Reference value :  7.50022e-06
 Reference value :  7.50034e-06
 Reference value :  7.50052e-06
 Reference value :  7.50086e-06
 Reference value :  7.50131e-06
 Reference value :  7.50175e-06
 Reference value :  7.50268e-06
 Reference value :  7.50322e-06
 Reference value :  7.50379e-06
 Reference value :  7.50442e-06
 Reference value :  7.50521e-06
 Reference value :  7.50604e-06
 Reference value :  7.50673e-06
 Reference value :  7.50746e-06
 Reference value :  7.50840e-06
 Reference value :  7.50937e-06
 Reference value :  7.51032e-06
 Reference value :  7.51145e-06
 Reference value :  7.51512e-06
 Reference value :  7.51855e-06
 Reference value :  7.53561e-06
 Reference value :  7.55402e-06
 Reference value :  7.66444e-06
 Reference value :  7.75011e-06
 Reference value :  7.75017e-06
 Reference value :  7.75021e-06
 Reference value :  7.75026e-06
 Reference value :  7.75045e-06
 Reference value :  7.75070e-06
 Reference value :  7.75101e-06
 Reference value :  7.75150e-06
 Reference value :  7.75202e-06
 Reference value :  7.75251e-06
 Reference value :  7.75325e-06
 Reference value :  7.75377e-06
 Reference value :  7.75436e-06
 Reference value :  7.75489e-06
 Reference value :  7.75548e-06
 Reference value :  7.75626e-06
 Reference value :  7.75711e-06
 Reference value :  7.75792e-06
 Reference value :  7.75892e-06
 Reference value :  7.76016e-06
 Reference value :  7.76164e-06
 Reference value :  7.76404e-06
 Reference value :  7.77302e-06
 Reference value :  7.78138e-06
 Reference value :  7.79565e-06
 Reference value :  7.81900e-06
 Reference value :  7.86555e-06
 Reference value :  8.00000e-06
 Reference value :  8.00001e-06
 Reference value :  8.00003e-06
 Reference value :  8.00007e-06
 Reference value :  8.00010e-06
 Reference value :  8.00012e-06
 Reference value :  8.00022e-06
 Reference value :  8.00034e-06
 Reference value :  8.00052e-06
 Reference value :  8.00086e-06
 Reference value :  8.00131e-06
 Reference value :  8.00182e-06
 Reference value :  8.00231e-06
 Reference value :  8.00278e-06
 Reference value :  8.00334e-06
 Reference value :  8.00393e-06
 Reference value :  8.00457e-06
 Reference value :  8.00518e-06
 Reference value :  8.00575e-06
 Reference value :  8.00725e-06
 Reference value :  8.00806e-06
 Reference value :  8.00890e-06
 Reference value :  8.00962e-06
 Reference value :  8.01042e-06
 Reference value :  8.01153e-06
 Reference value :  8.01268e-06
 Reference value :  8.01498e-06
 Reference value :  8.01601e-06
 Reference value :  8.01737e-06
 Reference value :  8.01887e-06
 Reference value :  8.02186e-06
 Reference value :  8.02786e-06
 Reference value :  8.03774e-06
 Reference value :  8.04812e-06
 Reference value :  8.06888e-06
 Reference value :  8.09030e-06
 Reference value :  8.10559e-06
 Reference value :  8.12007e-06
 Reference value :  8.14107e-06
 Reference value :  8.16518e-06
 Reference value :  8.18552e-06
 Reference value :  8.25010e-06
 Reference value :  8.25013e-06
 Reference value :  8.25017e-06
 Reference value :  8.25020e-06
 Reference value :  8.25021e-06
 Reference value :  8.25026e-06
 Reference value :  8.25045e-06
 Reference value :  8.25070e-06
 Reference value :  8.25101e-06
 Reference value :  8.25150e-06
 Reference value :  8.25251e-06
 Reference value :  8.25324e-06
 Reference value :  8.25400e-06
 Reference value :  8.25501e-06
 Reference value :  8.25602e-06
 Reference value :  8.25696e-06
 Reference value :  8.25853e-06
 Reference value :  8.26317e-06
 Reference value :  8.26793e-06
 Reference value :  8.27746e-06
 Reference value :  8.33461e-06
 Reference value :  8.50000e-06
 Reference value :  8.50001e-06
 Reference value :  8.50003e-06
 Reference value :  8.50007e-06
 Reference value :  8.50010e-06
 Reference value :  8.50011e-06
 Reference value :  8.50016e-06
 Reference value :  8.50022e-06
 Reference value :  8.50060e-06
 Reference value :  8.50094e-06
 Reference value :  8.50143e-06
 Reference value :  8.50195e-06
 Reference value :  8.50244e-06
 Reference value :  8.50297e-06
 Reference value :  8.50357e-06
 Reference value :  8.50424e-06
 Reference value :  8.50489e-06
 Reference value :  8.50563e-06
 Reference value :  8.50631e-06
 Reference value :  8.50714e-06
 Reference value :  8.50849e-06
 Reference value :  8.51027e-06
 Reference value :  8.51378e-06
 Reference value :  8.51987e-06
 Reference value :  8.52616e-06
 Reference value :  8.53052e-06
 Reference value :  8.53356e-06
 Reference value :  8.53596e-06
 Reference value :  8.53723e-06
 Reference value :  8.53870e-06
 Reference value :  8.54006e-06
 Reference value :  8.54114e-06
 Reference value :  8.54230e-06
 Reference value :  8.54551e-06
 Reference value :  8.54881e-06
 Reference value :  8.55313e-06
 Reference value :  8.55749e-06
 Reference value :  8.56165e-06
 Reference value :  8.57283e-06
 Reference value :  8.58107e-06
 Reference value :  8.59030e-06
 Reference value :  8.60357e-06
 Reference value :  8.61708e-06
 Reference value :  8.62713e-06
 Reference value :  8.63466e-06
 Reference value :  8.64170e-06
 Reference value :  8.64654e-06
 Reference value :  8.65099e-06
 Reference value :  8.65701e-06
 Reference value :  8.66312e-06
 Reference value :  8.67007e-06
 Reference value :  8.67641e-06
 Reference value :  8.69710e-06
 Reference value :  8.71275e-06
 Reference value :  8.75010e-06
 Reference value :  8.75011e-06
 Reference value :  8.75013e-06
 Reference value :  8.75020e-06
 Reference value :  8.75022e-06
 Reference value :  8.75026e-06
 Reference value :  8.75032e-06
 Reference value :  8.75045e-06
 Reference value :  8.75070e-06
 Reference value :  8.75101e-06
 Reference value :  8.75150e-06
 Reference value :  8.75202e-06
 Reference value :  8.75323e-06
 Reference value :  8.75373e-06
 Reference value :  8.75429e-06
 Reference value :  8.75490e-06
 Reference value :  8.75553e-06
 Reference value :  8.75633e-06
 Reference value :  8.75914e-06
 Reference value :  8.76187e-06
 Reference value :  8.77125e-06
 Reference value :  8.80874e-06
 Reference value :  8.85873e-06
 Reference value :  8.95870e-06
No. of Data Rows : 1323
ngspice-44 done
