
Note: Compatibility modes selected: hs a


Circuit: ** sch_path: /home/madra/cace/sar-adc-using-sky130-pdk/runs/run_2025-09-01_19-00-32/parameters/inl/run_4/sar_output.sch

option SCALE: Scale is set to 1e-06 for instance and model parameters
option SCALE: Scale is set to 1e-06 for instance and model parameters
option SCALE: Scale is set to 1e-06 for instance and model parameters
option SCALE: Scale is set to 1e-06 for instance and model parameters
Doing analysis at TEMP = 27.000000 and TNOM = 27.000000

Using KLU as Direct Linear Solver
Operating point simulation skipped by 'uic',
  now using transient initial conditions.
 Reference value :  1.00000e-12
 Reference value :  1.08400e-12
 Reference value :  2.23477e-12
 Reference value :  6.25203e-12
 Reference value :  3.22144e-11
 Reference value :  1.00000e-10
 Reference value :  1.34853e-10
 Reference value :  4.13677e-10
 Reference value :  9.60102e-10
 Reference value :  1.89935e-09
 Reference value :  4.13895e-09
 Reference value :  6.06800e-09
 Reference value :  7.52173e-09
 Reference value :  8.97010e-09
 Reference value :  1.09070e-08
 Reference value :  1.17389e-08
 Reference value :  1.41941e-08
 Reference value :  2.10351e-08
 Reference value :  3.54204e-08
 Reference value :  5.28353e-08
 Reference value :  9.71352e-08
 Reference value :  2.50110e-07
 Reference value :  2.50200e-07
 Reference value :  2.50253e-07
 Reference value :  2.50569e-07
 Reference value :  2.51400e-07
 Reference value :  2.53039e-07
 Reference value :  2.53667e-07
 Reference value :  2.54810e-07
 Reference value :  2.56995e-07
 Reference value :  2.62624e-07
 Reference value :  3.04335e-07
 Reference value :  4.22606e-07
 Reference value :  5.00030e-07
 Reference value :  5.00108e-07
 Reference value :  5.00220e-07
 Reference value :  5.00863e-07
 Reference value :  5.02312e-07
 Reference value :  5.03342e-07
 Reference value :  5.04594e-07
 Reference value :  5.07731e-07
 Reference value :  5.11177e-07
 Reference value :  5.13779e-07
 Reference value :  5.19354e-07
 Reference value :  5.49048e-07
 Reference value :  7.09089e-07
 Reference value :  7.50170e-07
 Reference value :  7.50208e-07
 Reference value :  7.50318e-07
 Reference value :  7.50831e-07
 Reference value :  7.51700e-07
 Reference value :  7.52703e-07
 Reference value :  7.54007e-07
 Reference value :  7.55255e-07
 Reference value :  7.56926e-07
 Reference value :  7.62298e-07
 Reference value :  7.87829e-07
 Reference value :  9.70240e-07
 Reference value :  1.00003e-06
 Reference value :  1.00010e-06
 Reference value :  1.00012e-06
 Reference value :  1.00034e-06
 Reference value :  1.00086e-06
 Reference value :  1.00182e-06
 Reference value :  1.00278e-06
 Reference value :  1.00333e-06
 Reference value :  1.00449e-06
 Reference value :  1.00586e-06
 Reference value :  1.00749e-06
 Reference value :  1.01010e-06
 Reference value :  1.01280e-06
 Reference value :  1.01379e-06
 Reference value :  1.01587e-06
 Reference value :  1.01802e-06
 Reference value :  1.02277e-06
 Reference value :  1.03875e-06
 Reference value :  1.09975e-06
 Reference value :  1.12868e-06
 Reference value :  1.13904e-06
 Reference value :  1.14755e-06
 Reference value :  1.17688e-06
 Reference value :  1.23515e-06
 Reference value :  1.25011e-06
 Reference value :  1.25017e-06
 Reference value :  1.25022e-06
 Reference value :  1.25044e-06
 Reference value :  1.25126e-06
 Reference value :  1.25214e-06
 Reference value :  1.25345e-06
 Reference value :  1.25453e-06
 Reference value :  1.25585e-06
 Reference value :  1.25985e-06
 Reference value :  1.29050e-06
 Reference value :  1.50000e-06
 Reference value :  1.50007e-06
 Reference value :  1.50011e-06
 Reference value :  1.50022e-06
 Reference value :  1.50086e-06
 Reference value :  1.50175e-06
 Reference value :  1.50268e-06
 Reference value :  1.50379e-06
 Reference value :  1.50522e-06
 Reference value :  1.50671e-06
 Reference value :  1.50832e-06
 Reference value :  1.51031e-06
 Reference value :  1.51798e-06
 Reference value :  1.57572e-06
 Reference value :  1.75013e-06
 Reference value :  1.75021e-06
 Reference value :  1.75032e-06
 Reference value :  1.75083e-06
 Reference value :  1.75170e-06
 Reference value :  1.75270e-06
 Reference value :  1.75401e-06
 Reference value :  1.75598e-06
 Reference value :  1.75765e-06
 Reference value :  1.76167e-06
 Reference value :  1.78023e-06
 Reference value :  1.91445e-06
 Reference value :  2.00003e-06
 Reference value :  2.00010e-06
 Reference value :  2.00016e-06
 Reference value :  2.00052e-06
 Reference value :  2.00131e-06
 Reference value :  2.00231e-06
 Reference value :  2.00278e-06
 Reference value :  2.00334e-06
 Reference value :  2.00393e-06
 Reference value :  2.00457e-06
 Reference value :  2.00582e-06
 Reference value :  2.00834e-06
 Reference value :  2.01155e-06
 Reference value :  2.01351e-06
 Reference value :  2.01529e-06
 Reference value :  2.01725e-06
 Reference value :  2.01840e-06
 Reference value :  2.02346e-06
 Reference value :  2.04748e-06
 Reference value :  2.09805e-06
 Reference value :  2.11979e-06
 Reference value :  2.14883e-06
 Reference value :  2.19900e-06
 Reference value :  2.25010e-06
 Reference value :  2.25017e-06
 Reference value :  2.25022e-06
 Reference value :  2.25044e-06
 Reference value :  2.25126e-06
 Reference value :  2.25214e-06
 Reference value :  2.25350e-06
 Reference value :  2.25460e-06
 Reference value :  2.25598e-06
 Reference value :  2.26015e-06
 Reference value :  2.29412e-06
 Reference value :  2.50001e-06
 Reference value :  2.50010e-06
 Reference value :  2.50016e-06
 Reference value :  2.50034e-06
 Reference value :  2.50086e-06
 Reference value :  2.50181e-06
 Reference value :  2.50278e-06
 Reference value :  2.50333e-06
 Reference value :  2.50455e-06
 Reference value :  2.50638e-06
 Reference value :  2.50715e-06
 Reference value :  2.50887e-06
 Reference value :  2.51094e-06
 Reference value :  2.51805e-06
 Reference value :  2.55309e-06
 Reference value :  2.75010e-06
 Reference value :  2.75011e-06
 Reference value :  2.75013e-06
 Reference value :  2.75017e-06
 Reference value :  2.75021e-06
 Reference value :  2.75026e-06
 Reference value :  2.75032e-06
 Reference value :  2.75045e-06
 Reference value :  2.75127e-06
 Reference value :  2.75215e-06
 Reference value :  2.75351e-06
 Reference value :  2.75402e-06
 Reference value :  2.75527e-06
 Reference value :  2.75801e-06
 Reference value :  2.76781e-06
 Reference value :  2.82328e-06
 Reference value :  3.00001e-06
 Reference value :  3.00010e-06
 Reference value :  3.00016e-06
 Reference value :  3.00052e-06
 Reference value :  3.00131e-06
 Reference value :  3.00231e-06
 Reference value :  3.00332e-06
 Reference value :  3.00449e-06
 Reference value :  3.00586e-06
 Reference value :  3.00748e-06
 Reference value :  3.01007e-06
 Reference value :  3.01150e-06
 Reference value :  3.01276e-06
 Reference value :  3.01376e-06
 Reference value :  3.01584e-06
 Reference value :  3.01685e-06
 Reference value :  3.01908e-06
 Reference value :  3.02242e-06
 Reference value :  3.02875e-06
 Reference value :  3.03580e-06
 Reference value :  3.03893e-06
 Reference value :  3.04243e-06
 Reference value :  3.04502e-06
 Reference value :  3.05223e-06
 Reference value :  3.06147e-06
 Reference value :  3.07918e-06
 Reference value :  3.13990e-06
 Reference value :  3.23540e-06
 Reference value :  3.25013e-06
 Reference value :  3.25020e-06
 Reference value :  3.25026e-06
 Reference value :  3.25045e-06
 Reference value :  3.25127e-06
 Reference value :  3.25216e-06
 Reference value :  3.25346e-06
 Reference value :  3.25396e-06
 Reference value :  3.25514e-06
 Reference value :  3.25584e-06
 Reference value :  3.25814e-06
 Reference value :  3.26272e-06
 Reference value :  3.27446e-06
 Reference value :  3.32141e-06
 Reference value :  3.50001e-06
 Reference value :  3.50007e-06
 Reference value :  3.50016e-06
 Reference value :  3.50034e-06
 Reference value :  3.50086e-06
 Reference value :  3.50175e-06
 Reference value :  3.50322e-06
 Reference value :  3.50522e-06
 Reference value :  3.50671e-06
 Reference value :  3.50832e-06
 Reference value :  3.51149e-06
 Reference value :  3.52609e-06
 Reference value :  3.57499e-06
 Reference value :  3.75011e-06
 Reference value :  3.75020e-06
 Reference value :  3.75026e-06
 Reference value :  3.75044e-06
 Reference value :  3.75126e-06
 Reference value :  3.75270e-06
 Reference value :  3.75401e-06
 Reference value :  3.75598e-06
 Reference value :  3.75765e-06
 Reference value :  3.75979e-06
 Reference value :  3.76679e-06
 Reference value :  3.79469e-06
 Reference value :  3.91437e-06
 Reference value :  4.00003e-06
 Reference value :  4.00012e-06
 Reference value :  4.00034e-06
 Reference value :  4.00086e-06
 Reference value :  4.00182e-06
 Reference value :  4.00278e-06
 Reference value :  4.00334e-06
 Reference value :  4.00457e-06
 Reference value :  4.00582e-06
 Reference value :  4.00733e-06
 Reference value :  4.01047e-06
 Reference value :  4.01155e-06
 Reference value :  4.01354e-06
 Reference value :  4.01534e-06
 Reference value :  4.01849e-06
 Reference value :  4.02362e-06
 Reference value :  4.04361e-06
 Reference value :  4.07921e-06
 Reference value :  4.08516e-06
 Reference value :  4.09682e-06
 Reference value :  4.11471e-06
 Reference value :  4.14251e-06
 Reference value :  4.15641e-06
 Reference value :  4.18183e-06
 Reference value :  4.20139e-06
 Reference value :  4.25010e-06
 Reference value :  4.25017e-06
 Reference value :  4.25022e-06
 Reference value :  4.25039e-06
 Reference value :  4.25073e-06
 Reference value :  4.25194e-06
 Reference value :  4.25312e-06
 Reference value :  4.25442e-06
 Reference value :  4.25569e-06
 Reference value :  4.25763e-06
 Reference value :  4.27383e-06
 Reference value :  4.48953e-06
 Reference value :  4.50007e-06
 Reference value :  4.50012e-06
 Reference value :  4.50035e-06
 Reference value :  4.50093e-06
 Reference value :  4.50196e-06
 Reference value :  4.50293e-06
 Reference value :  4.50405e-06
 Reference value :  4.50560e-06
 Reference value :  4.50743e-06
 Reference value :  4.50928e-06
 Reference value :  4.51137e-06
 Reference value :  4.51876e-06
 Reference value :  4.55960e-06
 Reference value :  4.75010e-06
 Reference value :  4.75017e-06
 Reference value :  4.75026e-06
 Reference value :  4.75054e-06
 Reference value :  4.75147e-06
 Reference value :  4.75311e-06
 Reference value :  4.75440e-06
 Reference value :  4.75566e-06
 Reference value :  4.75726e-06
 Reference value :  4.75904e-06
 Reference value :  4.76405e-06
 Reference value :  4.78088e-06
 Reference value :  4.85107e-06
 Reference value :  5.00003e-06
 Reference value :  5.00011e-06
 Reference value :  5.00022e-06
 Reference value :  5.00093e-06
 Reference value :  5.00196e-06
 Reference value :  5.00297e-06
 Reference value :  5.00410e-06
 Reference value :  5.00459e-06
 Reference value :  5.00583e-06
 Reference value :  5.00816e-06
 Reference value :  5.01067e-06
 Reference value :  5.01295e-06
 Reference value :  5.01457e-06
 Reference value :  5.01554e-06
 Reference value :  5.01870e-06
 Reference value :  5.02758e-06
 Reference value :  5.03454e-06
 Reference value :  5.03813e-06
 Reference value :  5.04367e-06
 Reference value :  5.05435e-06
 Reference value :  5.08773e-06
 Reference value :  5.18003e-06
 Reference value :  5.25013e-06
 Reference value :  5.25021e-06
 Reference value :  5.25032e-06
 Reference value :  5.25071e-06
 Reference value :  5.25193e-06
 Reference value :  5.25381e-06
 Reference value :  5.25497e-06
 Reference value :  5.25635e-06
 Reference value :  5.26100e-06
 Reference value :  5.30249e-06
 Reference value :  5.50000e-06
 Reference value :  5.50007e-06
 Reference value :  5.50011e-06
 Reference value :  5.50022e-06
 Reference value :  5.50059e-06
 Reference value :  5.50145e-06
 Reference value :  5.50245e-06
 Reference value :  5.50350e-06
 Reference value :  5.50490e-06
 Reference value :  5.50641e-06
 Reference value :  5.50828e-06
 Reference value :  5.51019e-06
 Reference value :  5.51246e-06
 Reference value :  5.52701e-06
 Reference value :  5.63511e-06
 Reference value :  5.75011e-06
 Reference value :  5.75017e-06
 Reference value :  5.75022e-06
 Reference value :  5.75039e-06
 Reference value :  5.75099e-06
 Reference value :  5.75194e-06
 Reference value :  5.75311e-06
 Reference value :  5.75440e-06
 Reference value :  5.75566e-06
 Reference value :  5.75725e-06
 Reference value :  5.77068e-06
 Reference value :  5.94316e-06
 Reference value :  6.00007e-06
 Reference value :  6.00012e-06
 Reference value :  6.00035e-06
 Reference value :  6.00093e-06
 Reference value :  6.00196e-06
 Reference value :  6.00245e-06
 Reference value :  6.00349e-06
 Reference value :  6.00466e-06
 Reference value :  6.00588e-06
 Reference value :  6.00872e-06
 Reference value :  6.01186e-06
 Reference value :  6.01441e-06
 Reference value :  6.01633e-06
 Reference value :  6.01878e-06
 Reference value :  6.02481e-06
 Reference value :  6.03544e-06
 Reference value :  6.04340e-06
 Reference value :  6.05231e-06
 Reference value :  6.06960e-06
 Reference value :  6.10588e-06
 Reference value :  6.21274e-06
 Reference value :  6.25013e-06
 Reference value :  6.25021e-06
 Reference value :  6.25026e-06
 Reference value :  6.25054e-06
 Reference value :  6.25143e-06
 Reference value :  6.25241e-06
 Reference value :  6.25377e-06
 Reference value :  6.25496e-06
 Reference value :  6.25641e-06
 Reference value :  6.26121e-06
 Reference value :  6.28320e-06
 Reference value :  6.43168e-06
 Reference value :  6.50003e-06
 Reference value :  6.50011e-06
 Reference value :  6.50035e-06
 Reference value :  6.50145e-06
 Reference value :  6.50243e-06
 Reference value :  6.50347e-06
 Reference value :  6.50471e-06
 Reference value :  6.50648e-06
 Reference value :  6.50836e-06
 Reference value :  6.51026e-06
 Reference value :  6.51261e-06
 Reference value :  6.52550e-06
 Reference value :  6.60159e-06
 Reference value :  6.75011e-06
 Reference value :  6.75017e-06
 Reference value :  6.75022e-06
 Reference value :  6.75032e-06
 Reference value :  6.75074e-06
 Reference value :  6.75194e-06
 Reference value :  6.75382e-06
 Reference value :  6.75503e-06
 Reference value :  6.75644e-06
 Reference value :  6.75808e-06
 Reference value :  6.76192e-06
 Reference value :  6.78095e-06
 Reference value :  6.92155e-06
 Reference value :  7.00003e-06
 Reference value :  7.00011e-06
 Reference value :  7.00022e-06
 Reference value :  7.00093e-06
 Reference value :  7.00245e-06
 Reference value :  7.00350e-06
 Reference value :  7.00459e-06
 Reference value :  7.00583e-06
 Reference value :  7.00816e-06
 Reference value :  7.01066e-06
 Reference value :  7.01294e-06
 Reference value :  7.01378e-06
 Reference value :  7.01554e-06
 Reference value :  7.01870e-06
 Reference value :  7.02838e-06
 Reference value :  7.08928e-06
 Reference value :  7.25011e-06
 Reference value :  7.25020e-06
 Reference value :  7.25026e-06
 Reference value :  7.25071e-06
 Reference value :  7.25193e-06
 Reference value :  7.25379e-06
 Reference value :  7.25433e-06
 Reference value :  7.25554e-06
 Reference value :  7.25881e-06
 Reference value :  7.26996e-06
 Reference value :  7.34234e-06
 Reference value :  7.50001e-06
 Reference value :  7.50007e-06
 Reference value :  7.50012e-06
 Reference value :  7.50035e-06
 Reference value :  7.50145e-06
 Reference value :  7.50243e-06
 Reference value :  7.50347e-06
 Reference value :  7.50471e-06
 Reference value :  7.50648e-06
 Reference value :  7.50836e-06
 Reference value :  7.51026e-06
 Reference value :  7.51261e-06
 Reference value :  7.52546e-06
 Reference value :  7.60110e-06
 Reference value :  7.75011e-06
 Reference value :  7.75020e-06
 Reference value :  7.75026e-06
 Reference value :  7.75054e-06
 Reference value :  7.75147e-06
 Reference value :  7.75194e-06
 Reference value :  7.75311e-06
 Reference value :  7.75440e-06
 Reference value :  7.75567e-06
 Reference value :  7.75643e-06
 Reference value :  7.75808e-06
 Reference value :  7.76191e-06
 Reference value :  7.77287e-06
 Reference value :  7.81647e-06
 Reference value :  8.00001e-06
 Reference value :  8.00007e-06
 Reference value :  8.00012e-06
 Reference value :  8.00035e-06
 Reference value :  8.00093e-06
 Reference value :  8.00245e-06
 Reference value :  8.00350e-06
 Reference value :  8.00459e-06
 Reference value :  8.00645e-06
 Reference value :  8.00816e-06
 Reference value :  8.00967e-06
 Reference value :  8.01139e-06
 Reference value :  8.01676e-06
 Reference value :  8.02825e-06
 Reference value :  8.04632e-06
 Reference value :  8.05797e-06
 Reference value :  8.06653e-06
 Reference value :  8.08655e-06
 Reference value :  8.11713e-06
 Reference value :  8.21420e-06
 Reference value :  8.25013e-06
 Reference value :  8.25020e-06
 Reference value :  8.25022e-06
 Reference value :  8.25044e-06
 Reference value :  8.25118e-06
 Reference value :  8.25256e-06
 Reference value :  8.25404e-06
 Reference value :  8.25596e-06
 Reference value :  8.25852e-06
 Reference value :  8.27751e-06
 Reference value :  8.41145e-06
 Reference value :  8.50003e-06
 Reference value :  8.50011e-06
 Reference value :  8.50022e-06
 Reference value :  8.50094e-06
 Reference value :  8.50195e-06
 Reference value :  8.50297e-06
 Reference value :  8.50424e-06
 Reference value :  8.50563e-06
 Reference value :  8.50714e-06
 Reference value :  8.51027e-06
 Reference value :  8.51987e-06
 Reference value :  8.52616e-06
 Reference value :  8.53074e-06
 Reference value :  8.53819e-06
 Reference value :  8.54477e-06
 Reference value :  8.55283e-06
 Reference value :  8.58040e-06
 Reference value :  8.69131e-06
 Reference value :  8.75011e-06
 Reference value :  8.75020e-06
 Reference value :  8.75026e-06
 Reference value :  8.75060e-06
 Reference value :  8.75127e-06
 Reference value :  8.75216e-06
 Reference value :  8.75273e-06
 Reference value :  8.75401e-06
 Reference value :  8.75523e-06
 Reference value :  8.75596e-06
 Reference value :  8.76008e-06
 Reference value :  8.77597e-06
 Reference value :  8.82484e-06
 Reference value :  9.00000e-06
 Reference value :  9.00003e-06
 Reference value :  9.00010e-06
 Reference value :  9.00011e-06
 Reference value :  9.00016e-06
 Reference value :  9.00034e-06
 Reference value :  9.00086e-06
 Reference value :  9.00182e-06
 Reference value :  9.00278e-06
 Reference value :  9.00332e-06
 Reference value :  9.00454e-06
 Reference value :  9.00636e-06
 Reference value :  9.00757e-06
 Reference value :  9.00985e-06
 Reference value :  9.01109e-06
 Reference value :  9.01367e-06
 Reference value :  9.01894e-06
 Reference value :  9.03410e-06
 Reference value :  9.10629e-06
 Reference value :  9.25011e-06
 Reference value :  9.25020e-06
 Reference value :  9.25026e-06
 Reference value :  9.25060e-06
 Reference value :  9.25170e-06
 Reference value :  9.25349e-06
 Reference value :  9.25401e-06
 Reference value :  9.25526e-06
 Reference value :  9.25689e-06
 Reference value :  9.26275e-06
 Reference value :  9.29265e-06
 Reference value :  9.38489e-06
 Reference value :  9.50003e-06
 Reference value :  9.50011e-06
 Reference value :  9.50022e-06
 Reference value :  9.50052e-06
 Reference value :  9.50131e-06
 Reference value :  9.50231e-06
 Reference value :  9.50332e-06
 Reference value :  9.50448e-06
 Reference value :  9.50585e-06
 Reference value :  9.50748e-06
 Reference value :  9.51005e-06
 Reference value :  9.51274e-06
 Reference value :  9.51374e-06
 Reference value :  9.51582e-06
 Reference value :  9.51786e-06
 Reference value :  9.52237e-06
 Reference value :  9.53836e-06
 Reference value :  9.57878e-06
 Reference value :  9.61824e-06
 Reference value :  9.63038e-06
 Reference value :  9.65043e-06
 Reference value :  9.67873e-06
 Reference value :  9.72735e-06
 Reference value :  9.75011e-06
 Reference value :  9.75020e-06
 Reference value :  9.75026e-06
 Reference value :  9.75060e-06
 Reference value :  9.75170e-06
 Reference value :  9.75345e-06
 Reference value :  9.75395e-06
 Reference value :  9.75514e-06
 Reference value :  9.75662e-06
 Reference value :  9.75815e-06
 Reference value :  9.76669e-06
 Reference value :  9.82184e-06
 Reference value :  1.00000e-05
 Reference value :  1.00001e-05
 Reference value :  1.00002e-05
 Reference value :  1.00005e-05
 Reference value :  1.00013e-05
 Reference value :  1.00022e-05
 Reference value :  1.00032e-05
 Reference value :  1.00044e-05
 Reference value :  1.00061e-05
 Reference value :  1.00067e-05
 Reference value :  1.00083e-05
 Reference value :  1.00103e-05
 Reference value :  1.00259e-05
 Reference value :  1.02501e-05
 Reference value :  1.02502e-05
 Reference value :  1.02502e-05
 Reference value :  1.02506e-05
 Reference value :  1.02517e-05
 Reference value :  1.02527e-05
 Reference value :  1.02540e-05
 Reference value :  1.02553e-05
 Reference value :  1.02568e-05
 Reference value :  1.02577e-05
 Reference value :  1.02598e-05
 Reference value :  1.02668e-05
 Reference value :  1.03167e-05
 Reference value :  1.05000e-05
 Reference value :  1.05000e-05
 Reference value :  1.05001e-05
 Reference value :  1.05002e-05
 Reference value :  1.05009e-05
 Reference value :  1.05018e-05
 Reference value :  1.05028e-05
 Reference value :  1.05033e-05
 Reference value :  1.05046e-05
 Reference value :  1.05058e-05
 Reference value :  1.05073e-05
 Reference value :  1.05094e-05
 Reference value :  1.05105e-05
 Reference value :  1.05115e-05
 Reference value :  1.05135e-05
 Reference value :  1.05153e-05
 Reference value :  1.05172e-05
 Reference value :  1.05193e-05
 Reference value :  1.05225e-05
 Reference value :  1.05358e-05
 Reference value :  1.05673e-05
 Reference value :  1.05884e-05
 Reference value :  1.06296e-05
 Reference value :  1.06530e-05
 Reference value :  1.06756e-05
 Reference value :  1.07360e-05
 Reference value :  1.07501e-05
 Reference value :  1.07502e-05
 Reference value :  1.07503e-05
 Reference value :  1.07508e-05
 Reference value :  1.07517e-05
 Reference value :  1.07527e-05
 Reference value :  1.07540e-05
 Reference value :  1.07560e-05
 Reference value :  1.07602e-05
 Reference value :  1.07946e-05
 Reference value :  1.10000e-05
 Reference value :  1.10001e-05
 Reference value :  1.10002e-05
 Reference value :  1.10005e-05
 Reference value :  1.10013e-05
 Reference value :  1.10023e-05
 Reference value :  1.10033e-05
 Reference value :  1.10045e-05
 Reference value :  1.10064e-05
 Reference value :  1.10071e-05
 Reference value :  1.10089e-05
 Reference value :  1.10109e-05
 Reference value :  1.10145e-05
 Reference value :  1.10345e-05
 Reference value :  1.12501e-05
 Reference value :  1.12502e-05
 Reference value :  1.12502e-05
 Reference value :  1.12504e-05
 Reference value :  1.12513e-05
 Reference value :  1.12522e-05
 Reference value :  1.12535e-05
 Reference value :  1.12546e-05
 Reference value :  1.12569e-05
 Reference value :  1.12627e-05
 Reference value :  1.12922e-05
 Reference value :  1.15000e-05
 Reference value :  1.15001e-05
 Reference value :  1.15001e-05
 Reference value :  1.15003e-05
 Reference value :  1.15009e-05
 Reference value :  1.15018e-05
 Reference value :  1.15028e-05
 Reference value :  1.15033e-05
 Reference value :  1.15045e-05
 Reference value :  1.15059e-05
 Reference value :  1.15075e-05
 Reference value :  1.15101e-05
 Reference value :  1.15115e-05
 Reference value :  1.15128e-05
 Reference value :  1.15138e-05
 Reference value :  1.15158e-05
 Reference value :  1.15168e-05
 Reference value :  1.15191e-05
 Reference value :  1.15253e-05
 Reference value :  1.15287e-05
 Reference value :  1.15320e-05
 Reference value :  1.15389e-05
 Reference value :  1.15449e-05
 Reference value :  1.15516e-05
 Reference value :  1.15608e-05
 Reference value :  1.15785e-05
 Reference value :  1.16842e-05
 Reference value :  1.17501e-05
 Reference value :  1.17502e-05
 Reference value :  1.17503e-05
 Reference value :  1.17508e-05
 Reference value :  1.17522e-05
 Reference value :  1.17535e-05
 Reference value :  1.17545e-05
 Reference value :  1.17558e-05
 Reference value :  1.17627e-05
 Reference value :  1.18214e-05
 Reference value :  1.20000e-05
 Reference value :  1.20000e-05
 Reference value :  1.20001e-05
 Reference value :  1.20002e-05
 Reference value :  1.20005e-05
 Reference value :  1.20013e-05
 Reference value :  1.20022e-05
 Reference value :  1.20032e-05
 Reference value :  1.20044e-05
 Reference value :  1.20052e-05
 Reference value :  1.20067e-05
 Reference value :  1.20083e-05
 Reference value :  1.20103e-05
 Reference value :  1.20259e-05
 Reference value :  1.21390e-05
 Reference value :  1.22501e-05
 Reference value :  1.22502e-05
 Reference value :  1.22502e-05
 Reference value :  1.22503e-05
 Reference value :  1.22508e-05
 Reference value :  1.22517e-05
 Reference value :  1.22527e-05
 Reference value :  1.22535e-05
 Reference value :  1.22540e-05
 Reference value :  1.22553e-05
 Reference value :  1.22568e-05
 Reference value :  1.22598e-05
 Reference value :  1.22723e-05
 Reference value :  1.23537e-05
 Reference value :  1.25000e-05
 Reference value :  1.25001e-05
 Reference value :  1.25002e-05
 Reference value :  1.25003e-05
 Reference value :  1.25009e-05
 Reference value :  1.25023e-05
 Reference value :  1.25033e-05
 Reference value :  1.25046e-05
 Reference value :  1.25058e-05
 Reference value :  1.25083e-05
 Reference value :  1.25105e-05
 Reference value :  1.25116e-05
 Reference value :  1.25135e-05
 Reference value :  1.25153e-05
 Reference value :  1.25173e-05
 Reference value :  1.25196e-05
 Reference value :  1.25275e-05
 Reference value :  1.25556e-05
 Reference value :  1.25789e-05
 Reference value :  1.25907e-05
 Reference value :  1.26032e-05
 Reference value :  1.26274e-05
 Reference value :  1.26549e-05
 Reference value :  1.26803e-05
 Reference value :  1.27200e-05
 Reference value :  1.27501e-05
 Reference value :  1.27502e-05
 Reference value :  1.27503e-05
 Reference value :  1.27507e-05
 Reference value :  1.27519e-05
 Reference value :  1.27531e-05
 Reference value :  1.27544e-05
 Reference value :  1.27567e-05
 Reference value :  1.27618e-05
 Reference value :  1.28167e-05
 Reference value :  1.30000e-05
 Reference value :  1.30001e-05
 Reference value :  1.30002e-05
 Reference value :  1.30003e-05
 Reference value :  1.30015e-05
 Reference value :  1.30024e-05
 Reference value :  1.30035e-05
 Reference value :  1.30047e-05
 Reference value :  1.30065e-05
 Reference value :  1.30084e-05
 Reference value :  1.30103e-05
 Reference value :  1.30126e-05
 Reference value :  1.30376e-05
 Reference value :  1.32501e-05
 Reference value :  1.32502e-05
 Reference value :  1.32502e-05
 Reference value :  1.32504e-05
 Reference value :  1.32510e-05
 Reference value :  1.32519e-05
 Reference value :  1.32531e-05
 Reference value :  1.32544e-05
 Reference value :  1.32557e-05
 Reference value :  1.32564e-05
 Reference value :  1.32590e-05
 Reference value :  1.32641e-05
 Reference value :  1.32947e-05
 Reference value :  1.34205e-05
 Reference value :  1.35000e-05
 Reference value :  1.35001e-05
 Reference value :  1.35002e-05
 Reference value :  1.35006e-05
 Reference value :  1.35015e-05
 Reference value :  1.35024e-05
 Reference value :  1.35035e-05
 Reference value :  1.35046e-05
 Reference value :  1.35058e-05
 Reference value :  1.35073e-05
 Reference value :  1.35097e-05
 Reference value :  1.35107e-05
 Reference value :  1.35129e-05
 Reference value :  1.35146e-05
 Reference value :  1.35156e-05
 Reference value :  1.35174e-05
 Reference value :  1.35195e-05
 Reference value :  1.35261e-05
 Reference value :  1.35337e-05
 Reference value :  1.35407e-05
 Reference value :  1.35462e-05
 Reference value :  1.35591e-05
 Reference value :  1.35934e-05
 Reference value :  1.36476e-05
 Reference value :  1.37501e-05
 Reference value :  1.37502e-05
 Reference value :  1.37502e-05
 Reference value :  1.37503e-05
 Reference value :  1.37507e-05
 Reference value :  1.37519e-05
 Reference value :  1.37531e-05
 Reference value :  1.37543e-05
 Reference value :  1.37563e-05
 Reference value :  1.37642e-05
 Reference value :  1.38010e-05
 Reference value :  1.40000e-05
 Reference value :  1.40001e-05
 Reference value :  1.40001e-05
 Reference value :  1.40003e-05
 Reference value :  1.40009e-05
 Reference value :  1.40020e-05
 Reference value :  1.40030e-05
 Reference value :  1.40041e-05
 Reference value :  1.40057e-05
 Reference value :  1.40064e-05
 Reference value :  1.40083e-05
 Reference value :  1.40102e-05
 Reference value :  1.40125e-05
 Reference value :  1.40427e-05
 Reference value :  1.42501e-05
 Reference value :  1.42502e-05
 Reference value :  1.42503e-05
 Reference value :  1.42505e-05
 Reference value :  1.42515e-05
 Reference value :  1.42524e-05
 Reference value :  1.42538e-05
 Reference value :  1.42550e-05
 Reference value :  1.42564e-05
 Reference value :  1.42612e-05
 Reference value :  1.42829e-05
 Reference value :  1.45000e-05
 Reference value :  1.45001e-05
 Reference value :  1.45001e-05
 Reference value :  1.45003e-05
 Reference value :  1.45009e-05
 Reference value :  1.45020e-05
 Reference value :  1.45030e-05
 Reference value :  1.45041e-05
 Reference value :  1.45047e-05
 Reference value :  1.45059e-05
 Reference value :  1.45087e-05
 Reference value :  1.45119e-05
 Reference value :  1.45144e-05
 Reference value :  1.45163e-05
 Reference value :  1.45200e-05
 Reference value :  1.45301e-05
 Reference value :  1.45353e-05
 Reference value :  1.45432e-05
 Reference value :  1.45521e-05
 Reference value :  1.45631e-05
 Reference value :  1.46054e-05
 Reference value :  1.47501e-05
 Reference value :  1.47502e-05
 Reference value :  1.47502e-05
 Reference value :  1.47503e-05
 Reference value :  1.47507e-05
 Reference value :  1.47514e-05
 Reference value :  1.47524e-05
 Reference value :  1.47538e-05
 Reference value :  1.47550e-05
 Reference value :  1.47564e-05
 Reference value :  1.47612e-05
 Reference value :  1.48042e-05
 Reference value :  1.50000e-05
 Reference value :  1.50001e-05
 Reference value :  1.50002e-05
 Reference value :  1.50006e-05
 Reference value :  1.50015e-05
 Reference value :  1.50024e-05
 Reference value :  1.50035e-05
 Reference value :  1.50047e-05
 Reference value :  1.50065e-05
 Reference value :  1.50093e-05
 Reference value :  1.50114e-05
 Reference value :  1.50255e-05
 Reference value :  1.51010e-05
 Reference value :  1.52501e-05
 Reference value :  1.52502e-05
 Reference value :  1.52502e-05
 Reference value :  1.52503e-05
 Reference value :  1.52505e-05
 Reference value :  1.52510e-05
 Reference value :  1.52519e-05
 Reference value :  1.52531e-05
 Reference value :  1.52544e-05
 Reference value :  1.52557e-05
 Reference value :  1.52564e-05
 Reference value :  1.52581e-05
 Reference value :  1.52603e-05
 Reference value :  1.52641e-05
 Reference value :  1.52809e-05
 Reference value :  1.53166e-05
 Reference value :  1.55000e-05
 Reference value :  1.55013e-05
 Reference value :  1.55039e-05
 Reference value :  1.55052e-05
 Reference value :  1.55077e-05
 Reference value :  1.55111e-05
 Reference value :  1.55133e-05
 Reference value :  1.55148e-05
 Reference value :  1.55168e-05
 Reference value :  1.55189e-05
 Reference value :  1.55242e-05
 Reference value :  1.55407e-05
 Reference value :  1.56690e-05
 Reference value :  1.57501e-05
 Reference value :  1.57502e-05
 Reference value :  1.57503e-05
 Reference value :  1.57505e-05
 Reference value :  1.57509e-05
 Reference value :  1.57515e-05
 Reference value :  1.57524e-05
 Reference value :  1.57537e-05
 Reference value :  1.57548e-05
 Reference value :  1.57562e-05
 Reference value :  1.57606e-05
 Reference value :  1.57789e-05
 Reference value :  1.59699e-05
 Reference value :  1.60000e-05
 Reference value :  1.60001e-05
 Reference value :  1.60002e-05
 Reference value :  1.60009e-05
 Reference value :  1.60024e-05
 Reference value :  1.60035e-05
 Reference value :  1.60047e-05
 Reference value :  1.60065e-05
 Reference value :  1.60084e-05
 Reference value :  1.60103e-05
 Reference value :  1.60126e-05
 Reference value :  1.60376e-05
 Reference value :  1.62501e-05
 Reference value :  1.62502e-05
 Reference value :  1.62503e-05
 Reference value :  1.62505e-05
 Reference value :  1.62515e-05
 Reference value :  1.62524e-05
 Reference value :  1.62538e-05
 Reference value :  1.62544e-05
 Reference value :  1.62557e-05
 Reference value :  1.62564e-05
 Reference value :  1.62581e-05
 Reference value :  1.62603e-05
 Reference value :  1.62641e-05
 Reference value :  1.62729e-05
 Reference value :  1.63164e-05
 Reference value :  1.65000e-05
 Reference value :  1.65000e-05
 Reference value :  1.65001e-05
 Reference value :  1.65001e-05
 Reference value :  1.65002e-05
 Reference value :  1.65006e-05
 Reference value :  1.65015e-05
 Reference value :  1.65024e-05
 Reference value :  1.65035e-05
 Reference value :  1.65046e-05
 Reference value :  1.65058e-05
 Reference value :  1.65073e-05
 Reference value :  1.65090e-05
 Reference value :  1.65097e-05
 Reference value :  1.65114e-05
 Reference value :  1.65143e-05
 Reference value :  1.65197e-05
 Reference value :  1.65282e-05
 Reference value :  1.65463e-05
 Reference value :  1.65580e-05
 Reference value :  1.65665e-05
 Reference value :  1.65866e-05
 Reference value :  1.66171e-05
 Reference value :  1.66617e-05
 Reference value :  1.67501e-05
 Reference value :  1.67502e-05
 Reference value :  1.67502e-05
 Reference value :  1.67504e-05
 Reference value :  1.67512e-05
 Reference value :  1.67520e-05
 Reference value :  1.67533e-05
 Reference value :  1.67560e-05
 Reference value :  1.67585e-05
 Reference value :  1.67775e-05
 Reference value :  1.70000e-05
 Reference value :  1.70015e-05
 Reference value :  1.70060e-05
 Reference value :  1.70111e-05
 Reference value :  1.70205e-05
 Reference value :  1.70253e-05
 Reference value :  1.70287e-05
 Reference value :  1.70314e-05
 Reference value :  1.70338e-05
 Reference value :  1.70356e-05
 Reference value :  1.70387e-05
 Reference value :  1.70433e-05
 Reference value :  1.70495e-05
 Reference value :  1.70792e-05
 Reference value :  1.71846e-05
 Reference value :  1.72501e-05
 Reference value :  1.72502e-05
 Reference value :  1.72502e-05
 Reference value :  1.72504e-05
 Reference value :  1.72513e-05
 Reference value :  1.72522e-05
 Reference value :  1.72535e-05
 Reference value :  1.72545e-05
 Reference value :  1.72559e-05
 Reference value :  1.72599e-05
 Reference value :  1.72747e-05
 Reference value :  1.73862e-05
 Reference value :  1.75000e-05
 Reference value :  1.75001e-05
 Reference value :  1.75001e-05
 Reference value :  1.75002e-05
 Reference value :  1.75003e-05
 Reference value :  1.75009e-05
 Reference value :  1.75013e-05
 Reference value :  1.75018e-05
 Reference value :  1.75028e-05
 Reference value :  1.75033e-05
 Reference value :  1.75045e-05
 Reference value :  1.75064e-05
 Reference value :  1.75076e-05
 Reference value :  1.75087e-05
 Reference value :  1.75111e-05
 Reference value :  1.75137e-05
 Reference value :  1.75190e-05
 Reference value :  1.75474e-05
 Reference value :  1.77501e-05
 Reference value :  1.77502e-05
 Reference value :  1.77503e-05
 Reference value :  1.77506e-05
 Reference value :  1.77517e-05
 Reference value :  1.77535e-05
 Reference value :  1.77546e-05
 Reference value :  1.77569e-05
 Reference value :  1.77679e-05
 Reference value :  1.78851e-05
 Reference value :  1.80021e-05
 Reference value :  1.80084e-05
 Reference value :  1.80121e-05
 Reference value :  1.80134e-05
 Reference value :  1.80159e-05
 Reference value :  1.80187e-05
 Reference value :  1.80253e-05
 Reference value :  1.80532e-05
 Reference value :  1.80747e-05
 Reference value :  1.81123e-05
 Reference value :  1.81249e-05
 Reference value :  1.81415e-05
 Reference value :  1.81946e-05
 Reference value :  1.82501e-05
 Reference value :  1.82502e-05
 Reference value :  1.82506e-05
 Reference value :  1.82517e-05
 Reference value :  1.82527e-05
 Reference value :  1.82536e-05
 Reference value :  1.82546e-05
 Reference value :  1.82559e-05
 Reference value :  1.82600e-05
 Reference value :  1.82922e-05
 Reference value :  1.85000e-05
 Reference value :  1.85001e-05
 Reference value :  1.85002e-05
 Reference value :  1.85005e-05
 Reference value :  1.85017e-05
 Reference value :  1.85032e-05
 Reference value :  1.85052e-05
 Reference value :  1.85067e-05
 Reference value :  1.85083e-05
 Reference value :  1.85103e-05
 Reference value :  1.85137e-05
 Reference value :  1.85400e-05
 Reference value :  1.87495e-05
 Reference value :  1.87501e-05
 Reference value :  1.87502e-05
 Reference value :  1.87503e-05
 Reference value :  1.87506e-05
 Reference value :  1.87513e-05
 Reference value :  1.87522e-05
 Reference value :  1.87535e-05
 Reference value :  1.87546e-05
 Reference value :  1.87560e-05
 Reference value :  1.87576e-05
 Reference value :  1.87617e-05
 Reference value :  1.87801e-05
 Reference value :  1.89135e-05
 Reference value :  1.90000e-05
 Reference value :  1.90001e-05
 Reference value :  1.90002e-05
 Reference value :  1.90009e-05
 Reference value :  1.90018e-05
 Reference value :  1.90028e-05
 Reference value :  1.90033e-05
 Reference value :  1.90046e-05
 Reference value :  1.90058e-05
 Reference value :  1.90083e-05
 Reference value :  1.90105e-05
 Reference value :  1.90127e-05
 Reference value :  1.90143e-05
 Reference value :  1.90163e-05
 Reference value :  1.90184e-05
 Reference value :  1.90234e-05
 Reference value :  1.90696e-05
 Reference value :  1.90938e-05
 Reference value :  1.91143e-05
 Reference value :  1.91282e-05
 Reference value :  1.91516e-05
 Reference value :  1.91731e-05
 Reference value :  1.92410e-05
 Reference value :  1.92501e-05
 Reference value :  1.92502e-05
 Reference value :  1.92503e-05
 Reference value :  1.92506e-05
 Reference value :  1.92513e-05
 Reference value :  1.92522e-05
 Reference value :  1.92535e-05
 Reference value :  1.92546e-05
 Reference value :  1.92560e-05
 Reference value :  1.92602e-05
 Reference value :  1.92767e-05
 Reference value :  1.93899e-05
 Reference value :  1.95020e-05
 Reference value :  1.95081e-05
 Reference value :  1.95123e-05
 Reference value :  1.95162e-05
 Reference value :  1.95265e-05
 Reference value :  1.95583e-05
 Reference value :  1.97501e-05
 Reference value :  1.97502e-05
 Reference value :  1.97503e-05
 Reference value :  1.97506e-05
 Reference value :  1.97517e-05
 Reference value :  1.97527e-05
 Reference value :  1.97536e-05
 Reference value :  1.97547e-05
 Reference value :  1.97560e-05
 Reference value :  1.97601e-05
 Reference value :  1.97933e-05
 Reference value :  2.00000e-05
 Reference value :  2.00001e-05
 Reference value :  2.00002e-05
 Reference value :  2.00005e-05
 Reference value :  2.00013e-05
 Reference value :  2.00023e-05
 Reference value :  2.00033e-05
 Reference value :  2.00045e-05
 Reference value :  2.00059e-05
 Reference value :  2.00085e-05
 Reference value :  2.00101e-05
 Reference value :  2.00128e-05
 Reference value :  2.00147e-05
 Reference value :  2.00168e-05
 Reference value :  2.00191e-05
 Reference value :  2.00253e-05
 Reference value :  2.00287e-05
 Reference value :  2.00389e-05
 Reference value :  2.00450e-05
 Reference value :  2.00517e-05
 Reference value :  2.00609e-05
 Reference value :  2.00724e-05
 Reference value :  2.01091e-05
 Reference value :  2.01844e-05
 Reference value :  2.02501e-05
 Reference value :  2.02502e-05
 Reference value :  2.02502e-05
 Reference value :  2.02504e-05
 Reference value :  2.02513e-05
 Reference value :  2.02522e-05
 Reference value :  2.02535e-05
 Reference value :  2.02545e-05
 Reference value :  2.02558e-05
 Reference value :  2.02598e-05
 Reference value :  2.02901e-05
 Reference value :  2.05021e-05
 Reference value :  2.05084e-05
 Reference value :  2.05129e-05
 Reference value :  2.05221e-05
 Reference value :  2.05464e-05
 Reference value :  2.06924e-05
 Reference value :  2.07501e-05
 Reference value :  2.07502e-05
 Reference value :  2.07502e-05
 Reference value :  2.07504e-05
 Reference value :  2.07508e-05
 Reference value :  2.07517e-05
 Reference value :  2.07527e-05
 Reference value :  2.07536e-05
 Reference value :  2.07547e-05
 Reference value :  2.07560e-05
 Reference value :  2.07586e-05
 Reference value :  2.07633e-05
 Reference value :  2.07805e-05
 Reference value :  2.08616e-05
 Reference value :  2.10000e-05
 Reference value :  2.10001e-05
 Reference value :  2.10002e-05
 Reference value :  2.10005e-05
 Reference value :  2.10013e-05
 Reference value :  2.10023e-05
 Reference value :  2.10033e-05
 Reference value :  2.10046e-05
 Reference value :  2.10058e-05
 Reference value :  2.10083e-05
 Reference value :  2.10105e-05
 Reference value :  2.10127e-05
 Reference value :  2.10144e-05
 Reference value :  2.10153e-05
 Reference value :  2.10185e-05
 Reference value :  2.10276e-05
 Reference value :  2.10558e-05
 Reference value :  2.10790e-05
 Reference value :  2.10908e-05
 Reference value :  2.11144e-05
 Reference value :  2.11419e-05
 Reference value :  2.11556e-05
 Reference value :  2.11809e-05
 Reference value :  2.12207e-05
 Reference value :  2.12501e-05
 Reference value :  2.12502e-05
 Reference value :  2.12503e-05
 Reference value :  2.12507e-05
 Reference value :  2.12519e-05
 Reference value :  2.12538e-05
 Reference value :  2.12551e-05
 Reference value :  2.12567e-05
 Reference value :  2.12618e-05
 Reference value :  2.12881e-05
 Reference value :  2.14861e-05
 Reference value :  2.15000e-05
 Reference value :  2.15001e-05
 Reference value :  2.15002e-05
 Reference value :  2.15009e-05
 Reference value :  2.15024e-05
 Reference value :  2.15035e-05
 Reference value :  2.15047e-05
 Reference value :  2.15056e-05
 Reference value :  2.15074e-05
 Reference value :  2.15093e-05
 Reference value :  2.15114e-05
 Reference value :  2.15255e-05
 Reference value :  2.16856e-05
 Reference value :  2.17501e-05
 Reference value :  2.17502e-05
 Reference value :  2.17503e-05
 Reference value :  2.17505e-05
 Reference value :  2.17510e-05
 Reference value :  2.17519e-05
 Reference value :  2.17531e-05
 Reference value :  2.17544e-05
 Reference value :  2.17564e-05
 Reference value :  2.17590e-05
 Reference value :  2.17672e-05
 Reference value :  2.18163e-05
 Reference value :  2.20013e-05
 Reference value :  2.20039e-05
 Reference value :  2.20052e-05
 Reference value :  2.20078e-05
 Reference value :  2.20113e-05
 Reference value :  2.20136e-05
 Reference value :  2.20153e-05
 Reference value :  2.20173e-05
 Reference value :  2.20211e-05
 Reference value :  2.20299e-05
 Reference value :  2.20377e-05
 Reference value :  2.20406e-05
 Reference value :  2.20455e-05
 Reference value :  2.20641e-05
 Reference value :  2.21374e-05
 Reference value :  2.22501e-05
 Reference value :  2.22502e-05
 Reference value :  2.22503e-05
 Reference value :  2.22504e-05
 Reference value :  2.22507e-05
 Reference value :  2.22509e-05
 Reference value :  2.22515e-05
 Reference value :  2.22524e-05
 Reference value :  2.22537e-05
 Reference value :  2.22543e-05
 Reference value :  2.22555e-05
 Reference value :  2.22563e-05
 Reference value :  2.22608e-05
 Reference value :  2.22959e-05
 Reference value :  2.24703e-05
 Reference value :  2.25000e-05
 Reference value :  2.25001e-05
 Reference value :  2.25001e-05
 Reference value :  2.25002e-05
 Reference value :  2.25006e-05
 Reference value :  2.25015e-05
 Reference value :  2.25024e-05
 Reference value :  2.25035e-05
 Reference value :  2.25041e-05
 Reference value :  2.25049e-05
 Reference value :  2.25064e-05
 Reference value :  2.25083e-05
 Reference value :  2.25102e-05
 Reference value :  2.25112e-05
 Reference value :  2.25190e-05
 Reference value :  2.25426e-05
 Reference value :  2.26331e-05
 Reference value :  2.27501e-05
 Reference value :  2.27502e-05
 Reference value :  2.27502e-05
 Reference value :  2.27503e-05
 Reference value :  2.27505e-05
 Reference value :  2.27515e-05
 Reference value :  2.27524e-05
 Reference value :  2.27538e-05
 Reference value :  2.27544e-05
 Reference value :  2.27557e-05
 Reference value :  2.27572e-05
 Reference value :  2.27707e-05
 Reference value :  2.28502e-05
 Reference value :  2.30011e-05
 Reference value :  2.30033e-05
 Reference value :  2.30044e-05
 Reference value :  2.30064e-05
 Reference value :  2.30082e-05
 Reference value :  2.30107e-05
 Reference value :  2.30120e-05
 Reference value :  2.30133e-05
 Reference value :  2.30143e-05
 Reference value :  2.30164e-05
 Reference value :  2.30174e-05
 Reference value :  2.30211e-05
 Reference value :  2.30307e-05
 Reference value :  2.30358e-05
 Reference value :  2.30436e-05
 Reference value :  2.30477e-05
 Reference value :  2.30576e-05
 Reference value :  2.30900e-05
 Reference value :  2.31284e-05
 Reference value :  2.31572e-05
 Reference value :  2.32501e-05
 Reference value :  2.32501e-05
 Reference value :  2.32502e-05
 Reference value :  2.32502e-05
 Reference value :  2.32503e-05
 Reference value :  2.32505e-05
 Reference value :  2.32509e-05
 Reference value :  2.32515e-05
 Reference value :  2.32524e-05
 Reference value :  2.32537e-05
 Reference value :  2.32542e-05
 Reference value :  2.32554e-05
 Reference value :  2.32561e-05
 Reference value :  2.32584e-05
 Reference value :  2.32682e-05
 Reference value :  2.33220e-05
 Reference value :  2.35000e-05
 Reference value :  2.35000e-05
 Reference value :  2.35001e-05
 Reference value :  2.35002e-05
 Reference value :  2.35003e-05
 Reference value :  2.35009e-05
 Reference value :  2.35020e-05
 Reference value :  2.35024e-05
 Reference value :  2.35035e-05
 Reference value :  2.35047e-05
 Reference value :  2.35065e-05
 Reference value :  2.35084e-05
 Reference value :  2.35103e-05
 Reference value :  2.35126e-05
 Reference value :  2.35255e-05
 Reference value :  2.36012e-05
 Reference value :  2.37501e-05
 Reference value :  2.37502e-05
 Reference value :  2.37503e-05
 Reference value :  2.37505e-05
 Reference value :  2.37515e-05
 Reference value :  2.37524e-05
 Reference value :  2.37538e-05
 Reference value :  2.37550e-05
 Reference value :  2.37564e-05
 Reference value :  2.37581e-05
 Reference value :  2.37603e-05
 Reference value :  2.37641e-05
 Reference value :  2.37809e-05
 Reference value :  2.38514e-05
 Reference value :  2.40000e-05
 Reference value :  2.40000e-05
 Reference value :  2.40001e-05
 Reference value :  2.40001e-05
 Reference value :  2.40002e-05
 Reference value :  2.40006e-05
 Reference value :  2.40015e-05
 Reference value :  2.40024e-05
 Reference value :  2.40035e-05
 Reference value :  2.40046e-05
 Reference value :  2.40065e-05
 Reference value :  2.40097e-05
 Reference value :  2.40107e-05
 Reference value :  2.40129e-05
 Reference value :  2.40146e-05
 Reference value :  2.40155e-05
 Reference value :  2.40175e-05
 Reference value :  2.40199e-05
 Reference value :  2.40284e-05
 Reference value :  2.40595e-05
 Reference value :  2.41790e-05
 Reference value :  2.42501e-05
 Reference value :  2.42502e-05
 Reference value :  2.42502e-05
 Reference value :  2.42503e-05
 Reference value :  2.42504e-05
 Reference value :  2.42507e-05
 Reference value :  2.42514e-05
 Reference value :  2.42524e-05
 Reference value :  2.42538e-05
 Reference value :  2.42543e-05
 Reference value :  2.42555e-05
 Reference value :  2.42572e-05
 Reference value :  2.42610e-05
 Reference value :  2.42814e-05
 Reference value :  2.45000e-05
 Reference value :  2.45000e-05
 Reference value :  2.45001e-05
 Reference value :  2.45001e-05
 Reference value :  2.45002e-05
 Reference value :  2.45006e-05
 Reference value :  2.45015e-05
 Reference value :  2.45024e-05
 Reference value :  2.45035e-05
 Reference value :  2.45047e-05
 Reference value :  2.45065e-05
 Reference value :  2.45084e-05
 Reference value :  2.45093e-05
 Reference value :  2.45114e-05
 Reference value :  2.45187e-05
 Reference value :  2.46009e-05
 Reference value :  2.47501e-05
 Reference value :  2.47502e-05
 Reference value :  2.47503e-05
 Reference value :  2.47504e-05
 Reference value :  2.47510e-05
 Reference value :  2.47519e-05
 Reference value :  2.47538e-05
 Reference value :  2.47550e-05
 Reference value :  2.47564e-05
 Reference value :  2.47581e-05
 Reference value :  2.47619e-05
 Reference value :  2.47809e-05
 Reference value :  2.49210e-05
 Reference value :  2.50000e-05
 Reference value :  2.50001e-05
 Reference value :  2.50002e-05
 Reference value :  2.50009e-05
 Reference value :  2.50020e-05
 Reference value :  2.50030e-05
 Reference value :  2.50041e-05
 Reference value :  2.50046e-05
 Reference value :  2.50058e-05
 Reference value :  2.50073e-05
 Reference value :  2.50097e-05
 Reference value :  2.50114e-05
 Reference value :  2.50168e-05
 Reference value :  2.50282e-05
 Reference value :  2.50463e-05
 Reference value :  2.50580e-05
 Reference value :  2.50665e-05
 Reference value :  2.51021e-05
 Reference value :  2.51617e-05
 Reference value :  2.52501e-05
 Reference value :  2.52502e-05
 Reference value :  2.52503e-05
 Reference value :  2.52504e-05
 Reference value :  2.52512e-05
 Reference value :  2.52520e-05
 Reference value :  2.52533e-05
 Reference value :  2.52550e-05
 Reference value :  2.52585e-05
 Reference value :  2.52775e-05
 Reference value :  2.55000e-05
 Reference value :  2.55015e-05
 Reference value :  2.55045e-05
 Reference value :  2.55060e-05
 Reference value :  2.55093e-05
 Reference value :  2.55165e-05
 Reference value :  2.55253e-05
 Reference value :  2.55287e-05
 Reference value :  2.55314e-05
 Reference value :  2.55356e-05
 Reference value :  2.55387e-05
 Reference value :  2.55464e-05
 Reference value :  2.55675e-05
 Reference value :  2.56328e-05
 Reference value :  2.57501e-05
 Reference value :  2.57502e-05
 Reference value :  2.57503e-05
 Reference value :  2.57508e-05
 Reference value :  2.57517e-05
 Reference value :  2.57527e-05
 Reference value :  2.57539e-05
 Reference value :  2.57552e-05
 Reference value :  2.57566e-05
 Reference value :  2.57628e-05
 Reference value :  2.57907e-05
 Reference value :  2.60000e-05
 Reference value :  2.60001e-05
 Reference value :  2.60001e-05
 Reference value :  2.60003e-05
 Reference value :  2.60009e-05
 Reference value :  2.60023e-05
 Reference value :  2.60033e-05
 Reference value :  2.60055e-05
 Reference value :  2.60075e-05
 Reference value :  2.60111e-05
 Reference value :  2.60137e-05
 Reference value :  2.60191e-05
 Reference value :  2.60477e-05
 Reference value :  2.61825e-05
 Reference value :  2.62501e-05
 Reference value :  2.62502e-05
 Reference value :  2.62503e-05
 Reference value :  2.62508e-05
 Reference value :  2.62521e-05
 Reference value :  2.62535e-05
 Reference value :  2.62546e-05
 Reference value :  2.62560e-05
 Reference value :  2.62602e-05
 Reference value :  2.62768e-05
 Reference value :  2.65000e-05
 Reference value :  2.65021e-05
 Reference value :  2.65063e-05
 Reference value :  2.65084e-05
 Reference value :  2.65122e-05
 Reference value :  2.65136e-05
 Reference value :  2.65161e-05
 Reference value :  2.65189e-05
 Reference value :  2.65255e-05
 Reference value :  2.65504e-05
 Reference value :  2.65929e-05
 Reference value :  2.66258e-05
 Reference value :  2.66423e-05
 Reference value :  2.66885e-05
 Reference value :  2.67501e-05
 Reference value :  2.67502e-05
 Reference value :  2.67503e-05
 Reference value :  2.67506e-05
 Reference value :  2.67517e-05
 Reference value :  2.67526e-05
 Reference value :  2.67536e-05
 Reference value :  2.67546e-05
 Reference value :  2.67559e-05
 Reference value :  2.67600e-05
 Reference value :  2.67752e-05
 Reference value :  2.68904e-05
 Reference value :  2.70000e-05
 Reference value :  2.70001e-05
 Reference value :  2.70002e-05
 Reference value :  2.70009e-05
 Reference value :  2.70017e-05
 Reference value :  2.70027e-05
 Reference value :  2.70038e-05
 Reference value :  2.70052e-05
 Reference value :  2.70067e-05
 Reference value :  2.70083e-05
 Reference value :  2.70103e-05
 Reference value :  2.70177e-05
 Reference value :  2.70727e-05
 Reference value :  2.72501e-05
 Reference value :  2.72502e-05
 Reference value :  2.72503e-05
 Reference value :  2.72506e-05
 Reference value :  2.72517e-05
 Reference value :  2.72527e-05
 Reference value :  2.72540e-05
 Reference value :  2.72560e-05
 Reference value :  2.72576e-05
 Reference value :  2.72616e-05
 Reference value :  2.72722e-05
 Reference value :  2.73163e-05
 Reference value :  2.75000e-05
 Reference value :  2.75000e-05
 Reference value :  2.75001e-05
 Reference value :  2.75001e-05
 Reference value :  2.75002e-05
 Reference value :  2.75005e-05
 Reference value :  2.75013e-05
 Reference value :  2.75023e-05
 Reference value :  2.75033e-05
 Reference value :  2.75046e-05
 Reference value :  2.75052e-05
 Reference value :  2.75058e-05
 Reference value :  2.75073e-05
 Reference value :  2.75094e-05
 Reference value :  2.75115e-05
 Reference value :  2.75127e-05
 Reference value :  2.75135e-05
 Reference value :  2.75153e-05
 Reference value :  2.75173e-05
 Reference value :  2.75196e-05
 Reference value :  2.75274e-05
 Reference value :  2.75702e-05
 Reference value :  2.76187e-05
 Reference value :  2.76331e-05
 Reference value :  2.76619e-05
 Reference value :  2.76945e-05
 Reference value :  2.77375e-05
 Reference value :  2.77501e-05
 Reference value :  2.77502e-05
 Reference value :  2.77503e-05
 Reference value :  2.77508e-05
 Reference value :  2.77522e-05
 Reference value :  2.77535e-05
 Reference value :  2.77546e-05
 Reference value :  2.77560e-05
 Reference value :  2.77583e-05
 Reference value :  2.77677e-05
 Reference value :  2.78264e-05
 Reference value :  2.80020e-05
 Reference value :  2.80081e-05
 Reference value :  2.80123e-05
 Reference value :  2.80162e-05
 Reference value :  2.80265e-05
 Reference value :  2.80585e-05
 Reference value :  2.82501e-05
 Reference value :  2.82501e-05
 Reference value :  2.82502e-05
 Reference value :  2.82503e-05
 Reference value :  2.82508e-05
 Reference value :  2.82521e-05
 Reference value :  2.82532e-05
 Reference value :  2.82536e-05
 Reference value :  2.82547e-05
 Reference value :  2.82560e-05
 Reference value :  2.82601e-05
 Reference value :  2.82760e-05
 Reference value :  2.83972e-05
 Reference value :  2.85000e-05
 Reference value :  2.85001e-05
 Reference value :  2.85001e-05
 Reference value :  2.85002e-05
 Reference value :  2.85003e-05
 Reference value :  2.85009e-05
 Reference value :  2.85018e-05
 Reference value :  2.85028e-05
 Reference value :  2.85033e-05
 Reference value :  2.85045e-05
 Reference value :  2.85059e-05
 Reference value :  2.85085e-05
 Reference value :  2.85101e-05
 Reference value :  2.85128e-05
 Reference value :  2.85138e-05
 Reference value :  2.85158e-05
 Reference value :  2.85179e-05
 Reference value :  2.85224e-05
 Reference value :  2.85287e-05
 Reference value :  2.85389e-05
 Reference value :  2.85450e-05
 Reference value :  2.85517e-05
 Reference value :  2.85609e-05
 Reference value :  2.85724e-05
 Reference value :  2.85912e-05
 Reference value :  2.86844e-05
 Reference value :  2.87501e-05
 Reference value :  2.87502e-05
 Reference value :  2.87502e-05
 Reference value :  2.87503e-05
 Reference value :  2.87506e-05
 Reference value :  2.87513e-05
 Reference value :  2.87522e-05
 Reference value :  2.87535e-05
 Reference value :  2.87545e-05
 Reference value :  2.87558e-05
 Reference value :  2.87581e-05
 Reference value :  2.87627e-05
 Reference value :  2.87745e-05
 Reference value :  2.88214e-05
 Reference value :  2.90021e-05
 Reference value :  2.90063e-05
 Reference value :  2.90084e-05
 Reference value :  2.90129e-05
 Reference value :  2.90220e-05
 Reference value :  2.90464e-05
 Reference value :  2.91300e-05
 Reference value :  2.92501e-05
 Reference value :  2.92502e-05
 Reference value :  2.92502e-05
 Reference value :  2.92504e-05
 Reference value :  2.92508e-05
 Reference value :  2.92517e-05
 Reference value :  2.92527e-05
 Reference value :  2.92536e-05
 Reference value :  2.92547e-05
 Reference value :  2.92560e-05
 Reference value :  2.92586e-05
 Reference value :  2.92615e-05
 Reference value :  2.92723e-05
 Reference value :  2.93204e-05
 Reference value :  2.95000e-05
 Reference value :  2.95001e-05
 Reference value :  2.95002e-05
 Reference value :  2.95005e-05
 Reference value :  2.95013e-05
 Reference value :  2.95023e-05
 Reference value :  2.95033e-05
 Reference value :  2.95046e-05
 Reference value :  2.95058e-05
 Reference value :  2.95073e-05
 Reference value :  2.95094e-05
 Reference value :  2.95105e-05
 Reference value :  2.95116e-05
 Reference value :  2.95135e-05
 Reference value :  2.95153e-05
 Reference value :  2.95183e-05
 Reference value :  2.95213e-05
 Reference value :  2.95266e-05
 Reference value :  2.95528e-05
 Reference value :  2.95654e-05
 Reference value :  2.95767e-05
 Reference value :  2.95842e-05
 Reference value :  2.95968e-05
 Reference value :  2.96153e-05
 Reference value :  2.96412e-05
 Reference value :  2.96540e-05
 Reference value :  2.96794e-05
 Reference value :  2.96885e-05
 Reference value :  2.97403e-05
 Reference value :  2.97501e-05
 Reference value :  2.97502e-05
 Reference value :  2.97503e-05
 Reference value :  2.97505e-05
 Reference value :  2.97510e-05
 Reference value :  2.97524e-05
 Reference value :  2.97538e-05
 Reference value :  2.97551e-05
 Reference value :  2.97566e-05
 Reference value :  2.97617e-05
 Reference value :  2.97876e-05
 Reference value :  2.99841e-05
 Reference value :  3.00001e-05
 Reference value :  3.00001e-05
 Reference value :  3.00003e-05
 Reference value :  3.00009e-05
 Reference value :  3.00024e-05
 Reference value :  3.00035e-05
 Reference value :  3.00047e-05
 Reference value :  3.00065e-05
 Reference value :  3.00093e-05
 Reference value :  3.00114e-05
 Reference value :  3.00187e-05
 Reference value :  3.01010e-05
 Reference value :  3.02501e-05
 Reference value :  3.02502e-05
 Reference value :  3.02503e-05
 Reference value :  3.02505e-05
 Reference value :  3.02510e-05
 Reference value :  3.02519e-05
 Reference value :  3.02531e-05
 Reference value :  3.02544e-05
 Reference value :  3.02564e-05
 Reference value :  3.02581e-05
 Reference value :  3.02619e-05
 Reference value :  3.02729e-05
 Reference value :  3.03163e-05
 Reference value :  3.04205e-05
 Reference value :  3.05013e-05
 Reference value :  3.05039e-05
 Reference value :  3.05052e-05
 Reference value :  3.05066e-05
 Reference value :  3.05078e-05
 Reference value :  3.05113e-05
 Reference value :  3.05136e-05
 Reference value :  3.05144e-05
 Reference value :  3.05163e-05
 Reference value :  3.05184e-05
 Reference value :  3.05211e-05
 Reference value :  3.05258e-05
 Reference value :  3.05298e-05
 Reference value :  3.05375e-05
 Reference value :  3.05404e-05
 Reference value :  3.05452e-05
 Reference value :  3.05563e-05
 Reference value :  3.05875e-05
 Reference value :  3.06752e-05
 Reference value :  3.07501e-05
 Reference value :  3.07502e-05
 Reference value :  3.07502e-05
 Reference value :  3.07503e-05
 Reference value :  3.07504e-05
 Reference value :  3.07507e-05
 Reference value :  3.07509e-05
 Reference value :  3.07515e-05
 Reference value :  3.07524e-05
 Reference value :  3.07537e-05
 Reference value :  3.07543e-05
 Reference value :  3.07555e-05
 Reference value :  3.07571e-05
 Reference value :  3.07640e-05
 Reference value :  3.08262e-05
 Reference value :  3.10000e-05
 Reference value :  3.10001e-05
 Reference value :  3.10002e-05
 Reference value :  3.10009e-05
 Reference value :  3.10024e-05
 Reference value :  3.10035e-05
 Reference value :  3.10049e-05
 Reference value :  3.10064e-05
 Reference value :  3.10083e-05
 Reference value :  3.10102e-05
 Reference value :  3.10124e-05
 Reference value :  3.10426e-05
 Reference value :  3.12501e-05
 Reference value :  3.12502e-05
 Reference value :  3.12503e-05
 Reference value :  3.12505e-05
 Reference value :  3.12515e-05
 Reference value :  3.12524e-05
 Reference value :  3.12544e-05
 Reference value :  3.12564e-05
 Reference value :  3.12645e-05
 Reference value :  3.13053e-05
 Reference value :  3.15000e-05
 Reference value :  3.15001e-05
 Reference value :  3.15001e-05
 Reference value :  3.15003e-05
 Reference value :  3.15009e-05
 Reference value :  3.15024e-05
 Reference value :  3.15035e-05
 Reference value :  3.15047e-05
 Reference value :  3.15066e-05
 Reference value :  3.15105e-05
 Reference value :  3.15119e-05
 Reference value :  3.15144e-05
 Reference value :  3.15163e-05
 Reference value :  3.15200e-05
 Reference value :  3.15248e-05
 Reference value :  3.15353e-05
 Reference value :  3.15433e-05
 Reference value :  3.15521e-05
 Reference value :  3.15695e-05
 Reference value :  3.16294e-05
 Reference value :  3.17501e-05
 Reference value :  3.17502e-05
 Reference value :  3.17503e-05
 Reference value :  3.17505e-05
 Reference value :  3.17514e-05
 Reference value :  3.17524e-05
 Reference value :  3.17538e-05
 Reference value :  3.17550e-05
 Reference value :  3.17564e-05
 Reference value :  3.17612e-05
 Reference value :  3.17831e-05
 Reference value :  3.18464e-05
 Reference value :  3.20000e-05
 Reference value :  3.20000e-05
 Reference value :  3.20001e-05
 Reference value :  3.20002e-05
 Reference value :  3.20006e-05
 Reference value :  3.20015e-05
 Reference value :  3.20024e-05
 Reference value :  3.20035e-05
 Reference value :  3.20056e-05
 Reference value :  3.20074e-05
 Reference value :  3.20093e-05
 Reference value :  3.20114e-05
 Reference value :  3.20187e-05
 Reference value :  3.20587e-05
 Reference value :  3.22501e-05
 Reference value :  3.22502e-05
 Reference value :  3.22503e-05
 Reference value :  3.22505e-05
 Reference value :  3.22515e-05
 Reference value :  3.22524e-05
 Reference value :  3.22538e-05
 Reference value :  3.22550e-05
 Reference value :  3.22564e-05
 Reference value :  3.22590e-05
 Reference value :  3.22641e-05
 Reference value :  3.22809e-05
 Reference value :  3.23516e-05
 Reference value :  3.25000e-05
 Reference value :  3.25001e-05
 Reference value :  3.25001e-05
 Reference value :  3.25002e-05
 Reference value :  3.25009e-05
 Reference value :  3.25024e-05
 Reference value :  3.25035e-05
 Reference value :  3.25046e-05
 Reference value :  3.25058e-05
 Reference value :  3.25073e-05
 Reference value :  3.25097e-05
 Reference value :  3.25107e-05
 Reference value :  3.25129e-05
 Reference value :  3.25138e-05
 Reference value :  3.25155e-05
 Reference value :  3.25175e-05
 Reference value :  3.25199e-05
 Reference value :  3.25284e-05
 Reference value :  3.25595e-05
 Reference value :  3.26790e-05
 Reference value :  3.27501e-05
 Reference value :  3.27502e-05
 Reference value :  3.27503e-05
 Reference value :  3.27505e-05
 Reference value :  3.27510e-05
 Reference value :  3.27519e-05
 Reference value :  3.27531e-05
 Reference value :  3.27538e-05
 Reference value :  3.27543e-05
 Reference value :  3.27555e-05
 Reference value :  3.27572e-05
 Reference value :  3.27642e-05
 Reference value :  3.28017e-05
 Reference value :  3.30000e-05
 Reference value :  3.30000e-05
 Reference value :  3.30001e-05
 Reference value :  3.30002e-05
 Reference value :  3.30006e-05
 Reference value :  3.30015e-05
 Reference value :  3.30024e-05
 Reference value :  3.30035e-05
 Reference value :  3.30047e-05
 Reference value :  3.30065e-05
 Reference value :  3.30084e-05
 Reference value :  3.30093e-05
 Reference value :  3.30114e-05
 Reference value :  3.30187e-05
 Reference value :  3.31009e-05
 Reference value :  3.32501e-05
 Reference value :  3.32502e-05
 Reference value :  3.32503e-05
 Reference value :  3.32505e-05
 Reference value :  3.32515e-05
 Reference value :  3.32524e-05
 Reference value :  3.32538e-05
 Reference value :  3.32544e-05
 Reference value :  3.32557e-05
 Reference value :  3.32564e-05
 Reference value :  3.32581e-05
 Reference value :  3.32603e-05
 Reference value :  3.32641e-05
 Reference value :  3.32809e-05
 Reference value :  3.33513e-05
 Reference value :  3.35000e-05
 Reference value :  3.35013e-05
 Reference value :  3.35052e-05
 Reference value :  3.35077e-05
 Reference value :  3.35111e-05
 Reference value :  3.35157e-05
 Reference value :  3.35310e-05
 Reference value :  3.35482e-05
 Reference value :  3.35597e-05
 Reference value :  3.35748e-05
 Reference value :  3.36155e-05
 Reference value :  3.37501e-05
 Reference value :  3.37502e-05
 Reference value :  3.37503e-05
 Reference value :  3.37506e-05
 Reference value :  3.37514e-05
 Reference value :  3.37529e-05
 Reference value :  3.37554e-05
 Reference value :  3.37613e-05
 Reference value :  3.37893e-05
 Reference value :  3.40000e-05
No. of Data Rows : 4829
ngspice-44 done
