
Note: Compatibility modes selected: hs a


Circuit: ** sch_path: /home/audrey/cace/sar-adc-using-sky130-pdk/runs/run_2025-09-09_17-39-17/parameters/power/run_2/power_consumption.sch

option SCALE: Scale is set to 1e-06 for instance and model parameters
option SCALE: Scale is set to 1e-06 for instance and model parameters
option SCALE: Scale is set to 1e-06 for instance and model parameters
option SCALE: Scale is set to 1e-06 for instance and model parameters
Doing analysis at TEMP = 27.000000 and TNOM = 27.000000

Using KLU as Direct Linear Solver
 Reference value :  0.00000e+00
 Reference value :  1.00000e-12
 Reference value :  2.00000e-12
 Reference value :  4.00000e-12
 Reference value :  8.00000e-12
 Reference value :  1.60000e-11
 Reference value :  3.20000e-11
 Reference value :  6.40000e-11
 Reference value :  1.00000e-10
 Reference value :  1.01503e-10
 Reference value :  1.04508e-10
 Reference value :  1.10520e-10
 Reference value :  1.22542e-10
 Reference value :  1.46587e-10
 Reference value :  1.94676e-10
 Reference value :  2.90855e-10
 Reference value :  4.40082e-10
 Reference value :  7.34073e-10
 Reference value :  1.08267e-09
 Reference value :  1.60980e-09
 Reference value :  2.19770e-09
 Reference value :  2.78295e-09
 Reference value :  3.47572e-09
 Reference value :  4.23112e-09
 Reference value :  4.88679e-09
 Reference value :  5.59824e-09
 Reference value :  6.32101e-09
 Reference value :  6.98846e-09
 Reference value :  7.86633e-09
 Reference value :  8.79339e-09
 Reference value :  9.83173e-09
 Reference value :  1.09902e-08
 Reference value :  1.23367e-08
 Reference value :  1.37025e-08
 Reference value :  1.50160e-08
 Reference value :  1.61403e-08
 Reference value :  1.73438e-08
 Reference value :  1.86685e-08
 Reference value :  2.02646e-08
 Reference value :  2.27213e-08
 Reference value :  2.49077e-08
 Reference value :  2.72896e-08
 Reference value :  3.03170e-08
 Reference value :  3.30896e-08
 Reference value :  3.43786e-08
 Reference value :  3.57186e-08
 Reference value :  3.70242e-08
 Reference value :  3.87022e-08
 Reference value :  4.08868e-08
 Reference value :  4.38197e-08
 Reference value :  4.71800e-08
 Reference value :  5.08009e-08
 Reference value :  5.55469e-08
 Reference value :  6.02062e-08
 Reference value :  6.72879e-08
 Reference value :  7.78330e-08
 Reference value :  9.63296e-08
 Reference value :  1.19720e-07
 Reference value :  1.53410e-07
 Reference value :  1.97430e-07
 Reference value :  2.50100e-07
 Reference value :  2.50110e-07
 Reference value :  2.50130e-07
 Reference value :  2.50170e-07
 Reference value :  2.50200e-07
 Reference value :  2.50201e-07
 Reference value :  2.50202e-07
 Reference value :  2.50204e-07
 Reference value :  2.50208e-07
 Reference value :  2.50216e-07
 Reference value :  2.50233e-07
 Reference value :  2.50266e-07
 Reference value :  2.50332e-07
 Reference value :  2.50408e-07
 Reference value :  2.50561e-07
 Reference value :  2.50726e-07
 Reference value :  2.51055e-07
 Reference value :  2.51399e-07
 Reference value :  2.51882e-07
 Reference value :  2.52433e-07
 Reference value :  2.53050e-07
 Reference value :  2.53890e-07
 Reference value :  2.54628e-07
 Reference value :  2.55444e-07
 Reference value :  2.56220e-07
 Reference value :  2.57078e-07
 Reference value :  2.57918e-07
 Reference value :  2.59294e-07
 Reference value :  2.61226e-07
 Reference value :  2.63453e-07
 Reference value :  2.66984e-07
 Reference value :  2.72011e-07
 Reference value :  2.82065e-07
 Reference value :  3.02173e-07
 Reference value :  3.41289e-07
 Reference value :  4.19521e-07
 Reference value :  5.00000e-07
 Reference value :  5.00010e-07
 Reference value :  5.00030e-07
 Reference value :  5.00070e-07
 Reference value :  5.00100e-07
 Reference value :  5.00104e-07
 Reference value :  5.00113e-07
 Reference value :  5.00130e-07
 Reference value :  5.00163e-07
 Reference value :  5.00231e-07
 Reference value :  5.00366e-07
 Reference value :  5.00553e-07
 Reference value :  5.00927e-07
 Reference value :  5.01510e-07
 Reference value :  5.02041e-07
 Reference value :  5.02611e-07
 Reference value :  5.03290e-07
 Reference value :  5.04081e-07
 Reference value :  5.04831e-07
 Reference value :  5.05645e-07
 Reference value :  5.06669e-07
 Reference value :  5.07758e-07
 Reference value :  5.09489e-07
 Reference value :  5.12226e-07
 Reference value :  5.14059e-07
 Reference value :  5.16132e-07
 Reference value :  5.18395e-07
 Reference value :  5.20765e-07
 Reference value :  5.23508e-07
 Reference value :  5.28101e-07
 Reference value :  5.34697e-07
 Reference value :  5.45898e-07
 Reference value :  5.65386e-07
 Reference value :  5.98378e-07
 Reference value :  6.58344e-07
 Reference value :  7.50100e-07
 Reference value :  7.50110e-07
 Reference value :  7.50130e-07
 Reference value :  7.50170e-07
 Reference value :  7.50200e-07
 Reference value :  7.50201e-07
 Reference value :  7.50202e-07
 Reference value :  7.50205e-07
 Reference value :  7.50211e-07
 Reference value :  7.50223e-07
 Reference value :  7.50247e-07
 Reference value :  7.50295e-07
 Reference value :  7.50390e-07
 Reference value :  7.50580e-07
 Reference value :  7.50954e-07
 Reference value :  7.51429e-07
 Reference value :  7.51992e-07
 Reference value :  7.52594e-07
 Reference value :  7.53250e-07
 Reference value :  7.54105e-07
 Reference value :  7.54725e-07
 Reference value :  7.55452e-07
 Reference value :  7.56121e-07
 Reference value :  7.56854e-07
 Reference value :  7.57766e-07
 Reference value :  7.58759e-07
 Reference value :  7.60745e-07
 Reference value :  7.62904e-07
 Reference value :  7.66530e-07
 Reference value :  7.71126e-07
 Reference value :  7.80318e-07
 Reference value :  7.98703e-07
 Reference value :  8.35471e-07
 Reference value :  9.09009e-07
 Reference value :  1.00000e-06
 Reference value :  1.00001e-06
 Reference value :  1.00003e-06
 Reference value :  1.00007e-06
 Reference value :  1.00010e-06
 Reference value :  1.00010e-06
 Reference value :  1.00011e-06
 Reference value :  1.00013e-06
 Reference value :  1.00016e-06
 Reference value :  1.00023e-06
 Reference value :  1.00036e-06
 Reference value :  1.00055e-06
 Reference value :  1.00092e-06
 Reference value :  1.00145e-06
 Reference value :  1.00198e-06
 Reference value :  1.00255e-06
 Reference value :  1.00322e-06
 Reference value :  1.00397e-06
 Reference value :  1.00472e-06
 Reference value :  1.00541e-06
 Reference value :  1.00613e-06
 Reference value :  1.00694e-06
 Reference value :  1.00770e-06
 Reference value :  1.00853e-06
 Reference value :  1.00971e-06
 Reference value :  1.01103e-06
 Reference value :  1.01330e-06
 Reference value :  1.01571e-06
 Reference value :  1.01765e-06
 Reference value :  1.01939e-06
 Reference value :  1.02066e-06
 Reference value :  1.02205e-06
 Reference value :  1.02362e-06
 Reference value :  1.02518e-06
 Reference value :  1.02702e-06
 Reference value :  1.02974e-06
 Reference value :  1.03262e-06
 Reference value :  1.03836e-06
 Reference value :  1.04749e-06
 Reference value :  1.06230e-06
 Reference value :  1.08228e-06
 Reference value :  1.11449e-06
 Reference value :  1.14554e-06
 Reference value :  1.17061e-06
 Reference value :  1.18614e-06
 Reference value :  1.19719e-06
 Reference value :  1.20578e-06
 Reference value :  1.21496e-06
 Reference value :  1.22427e-06
 Reference value :  1.23676e-06
 Reference value :  1.25010e-06
 Reference value :  1.25011e-06
 Reference value :  1.25013e-06
 Reference value :  1.25017e-06
 Reference value :  1.25020e-06
 Reference value :  1.25020e-06
 Reference value :  1.25020e-06
 Reference value :  1.25021e-06
 Reference value :  1.25021e-06
 Reference value :  1.25022e-06
 Reference value :  1.25025e-06
 Reference value :  1.25029e-06
 Reference value :  1.25039e-06
 Reference value :  1.25057e-06
 Reference value :  1.25090e-06
 Reference value :  1.25140e-06
 Reference value :  1.25202e-06
 Reference value :  1.25261e-06
 Reference value :  1.25328e-06
 Reference value :  1.25410e-06
 Reference value :  1.25469e-06
 Reference value :  1.25538e-06
 Reference value :  1.25624e-06
 Reference value :  1.25716e-06
 Reference value :  1.25820e-06
 Reference value :  1.26029e-06
 Reference value :  1.26216e-06
 Reference value :  1.26537e-06
 Reference value :  1.26920e-06
 Reference value :  1.27687e-06
 Reference value :  1.29222e-06
 Reference value :  1.32291e-06
 Reference value :  1.38429e-06
 Reference value :  1.50000e-06
 Reference value :  1.50001e-06
 Reference value :  1.50003e-06
 Reference value :  1.50007e-06
 Reference value :  1.50010e-06
 Reference value :  1.50010e-06
 Reference value :  1.50011e-06
 Reference value :  1.50013e-06
 Reference value :  1.50016e-06
 Reference value :  1.50023e-06
 Reference value :  1.50037e-06
 Reference value :  1.50054e-06
 Reference value :  1.50090e-06
 Reference value :  1.50140e-06
 Reference value :  1.50191e-06
 Reference value :  1.50242e-06
 Reference value :  1.50304e-06
 Reference value :  1.50370e-06
 Reference value :  1.50457e-06
 Reference value :  1.50538e-06
 Reference value :  1.50630e-06
 Reference value :  1.50760e-06
 Reference value :  1.50904e-06
 Reference value :  1.51043e-06
 Reference value :  1.51184e-06
 Reference value :  1.51314e-06
 Reference value :  1.51457e-06
 Reference value :  1.51599e-06
 Reference value :  1.51762e-06
 Reference value :  1.52090e-06
 Reference value :  1.52654e-06
 Reference value :  1.53729e-06
 Reference value :  1.55880e-06
 Reference value :  1.60182e-06
 Reference value :  1.68787e-06
 Reference value :  1.75010e-06
 Reference value :  1.75011e-06
 Reference value :  1.75013e-06
 Reference value :  1.75017e-06
 Reference value :  1.75020e-06
 Reference value :  1.75020e-06
 Reference value :  1.75020e-06
 Reference value :  1.75021e-06
 Reference value :  1.75021e-06
 Reference value :  1.75022e-06
 Reference value :  1.75025e-06
 Reference value :  1.75029e-06
 Reference value :  1.75039e-06
 Reference value :  1.75058e-06
 Reference value :  1.75091e-06
 Reference value :  1.75141e-06
 Reference value :  1.75204e-06
 Reference value :  1.75262e-06
 Reference value :  1.75330e-06
 Reference value :  1.75415e-06
 Reference value :  1.75475e-06
 Reference value :  1.75545e-06
 Reference value :  1.75614e-06
 Reference value :  1.75687e-06
 Reference value :  1.75785e-06
 Reference value :  1.75890e-06
 Reference value :  1.76008e-06
 Reference value :  1.76151e-06
 Reference value :  1.76362e-06
 Reference value :  1.76564e-06
 Reference value :  1.76927e-06
 Reference value :  1.77380e-06
 Reference value :  1.78287e-06
 Reference value :  1.80101e-06
 Reference value :  1.83728e-06
 Reference value :  1.90983e-06
 Reference value :  2.00000e-06
 Reference value :  2.00001e-06
 Reference value :  2.00003e-06
 Reference value :  2.00007e-06
 Reference value :  2.00010e-06
 Reference value :  2.00010e-06
 Reference value :  2.00011e-06
 Reference value :  2.00013e-06
 Reference value :  2.00016e-06
 Reference value :  2.00023e-06
 Reference value :  2.00036e-06
 Reference value :  2.00054e-06
 Reference value :  2.00089e-06
 Reference value :  2.00139e-06
 Reference value :  2.00190e-06
 Reference value :  2.00243e-06
 Reference value :  2.00309e-06
 Reference value :  2.00375e-06
 Reference value :  2.00452e-06
 Reference value :  2.00515e-06
 Reference value :  2.00585e-06
 Reference value :  2.00653e-06
 Reference value :  2.00722e-06
 Reference value :  2.00797e-06
 Reference value :  2.00886e-06
 Reference value :  2.00988e-06
 Reference value :  2.01149e-06
 Reference value :  2.01378e-06
 Reference value :  2.01532e-06
 Reference value :  2.01706e-06
 Reference value :  2.01870e-06
 Reference value :  2.01995e-06
 Reference value :  2.02112e-06
 Reference value :  2.02220e-06
 Reference value :  2.02346e-06
 Reference value :  2.02497e-06
 Reference value :  2.02645e-06
 Reference value :  2.02898e-06
 Reference value :  2.03199e-06
 Reference value :  2.03801e-06
 Reference value :  2.04932e-06
 Reference value :  2.06756e-06
 Reference value :  2.08916e-06
 Reference value :  2.10988e-06
 Reference value :  2.13347e-06
 Reference value :  2.14801e-06
 Reference value :  2.16194e-06
 Reference value :  2.17966e-06
 Reference value :  2.19621e-06
 Reference value :  2.22274e-06
 Reference value :  2.25010e-06
 Reference value :  2.25011e-06
 Reference value :  2.25013e-06
 Reference value :  2.25017e-06
 Reference value :  2.25020e-06
 Reference value :  2.25020e-06
 Reference value :  2.25020e-06
 Reference value :  2.25021e-06
 Reference value :  2.25021e-06
 Reference value :  2.25022e-06
 Reference value :  2.25025e-06
 Reference value :  2.25029e-06
 Reference value :  2.25039e-06
 Reference value :  2.25057e-06
 Reference value :  2.25090e-06
 Reference value :  2.25139e-06
 Reference value :  2.25202e-06
 Reference value :  2.25260e-06
 Reference value :  2.25328e-06
 Reference value :  2.25412e-06
 Reference value :  2.25474e-06
 Reference value :  2.25545e-06
 Reference value :  2.25637e-06
 Reference value :  2.25722e-06
 Reference value :  2.25835e-06
 Reference value :  2.26035e-06
 Reference value :  2.26229e-06
 Reference value :  2.26554e-06
 Reference value :  2.26951e-06
 Reference value :  2.27745e-06
 Reference value :  2.29334e-06
 Reference value :  2.32512e-06
 Reference value :  2.37993e-06
 Reference value :  2.43880e-06
 Reference value :  2.50000e-06
 Reference value :  2.50001e-06
 Reference value :  2.50003e-06
 Reference value :  2.50007e-06
 Reference value :  2.50010e-06
 Reference value :  2.50010e-06
 Reference value :  2.50011e-06
 Reference value :  2.50013e-06
 Reference value :  2.50016e-06
 Reference value :  2.50023e-06
 Reference value :  2.50036e-06
 Reference value :  2.50054e-06
 Reference value :  2.50089e-06
 Reference value :  2.50139e-06
 Reference value :  2.50190e-06
 Reference value :  2.50244e-06
 Reference value :  2.50310e-06
 Reference value :  2.50375e-06
 Reference value :  2.50451e-06
 Reference value :  2.50537e-06
 Reference value :  2.50619e-06
 Reference value :  2.50749e-06
 Reference value :  2.50881e-06
 Reference value :  2.51007e-06
 Reference value :  2.51136e-06
 Reference value :  2.51299e-06
 Reference value :  2.51447e-06
 Reference value :  2.51618e-06
 Reference value :  2.51798e-06
 Reference value :  2.52157e-06
 Reference value :  2.52848e-06
 Reference value :  2.53992e-06
 Reference value :  2.56279e-06
 Reference value :  2.60853e-06
 Reference value :  2.70001e-06
 Reference value :  2.75010e-06
 Reference value :  2.75011e-06
 Reference value :  2.75013e-06
 Reference value :  2.75017e-06
 Reference value :  2.75020e-06
 Reference value :  2.75020e-06
 Reference value :  2.75020e-06
 Reference value :  2.75021e-06
 Reference value :  2.75021e-06
 Reference value :  2.75022e-06
 Reference value :  2.75025e-06
 Reference value :  2.75029e-06
 Reference value :  2.75039e-06
 Reference value :  2.75058e-06
 Reference value :  2.75091e-06
 Reference value :  2.75140e-06
 Reference value :  2.75198e-06
 Reference value :  2.75258e-06
 Reference value :  2.75323e-06
 Reference value :  2.75406e-06
 Reference value :  2.75468e-06
 Reference value :  2.75539e-06
 Reference value :  2.75604e-06
 Reference value :  2.75677e-06
 Reference value :  2.75766e-06
 Reference value :  2.75866e-06
 Reference value :  2.76065e-06
 Reference value :  2.76275e-06
 Reference value :  2.76630e-06
 Reference value :  2.77066e-06
 Reference value :  2.77939e-06
 Reference value :  2.79684e-06
 Reference value :  2.83175e-06
 Reference value :  2.90156e-06
 Reference value :  3.00000e-06
 Reference value :  3.00001e-06
 Reference value :  3.00003e-06
 Reference value :  3.00007e-06
 Reference value :  3.00010e-06
 Reference value :  3.00010e-06
 Reference value :  3.00011e-06
 Reference value :  3.00013e-06
 Reference value :  3.00016e-06
 Reference value :  3.00023e-06
 Reference value :  3.00036e-06
 Reference value :  3.00054e-06
 Reference value :  3.00089e-06
 Reference value :  3.00139e-06
 Reference value :  3.00190e-06
 Reference value :  3.00243e-06
 Reference value :  3.00310e-06
 Reference value :  3.00375e-06
 Reference value :  3.00453e-06
 Reference value :  3.00519e-06
 Reference value :  3.00590e-06
 Reference value :  3.00677e-06
 Reference value :  3.00753e-06
 Reference value :  3.00833e-06
 Reference value :  3.00950e-06
 Reference value :  3.01055e-06
 Reference value :  3.01260e-06
 Reference value :  3.01496e-06
 Reference value :  3.01682e-06
 Reference value :  3.01885e-06
 Reference value :  3.02023e-06
 Reference value :  3.02177e-06
 Reference value :  3.02316e-06
 Reference value :  3.02462e-06
 Reference value :  3.02633e-06
 Reference value :  3.02863e-06
 Reference value :  3.03108e-06
 Reference value :  3.03576e-06
 Reference value :  3.04207e-06
 Reference value :  3.05004e-06
 Reference value :  3.05739e-06
 Reference value :  3.06416e-06
 Reference value :  3.07104e-06
 Reference value :  3.07747e-06
 Reference value :  3.08290e-06
 Reference value :  3.08858e-06
 Reference value :  3.09575e-06
 Reference value :  3.10191e-06
 Reference value :  3.10935e-06
 Reference value :  3.11967e-06
 Reference value :  3.13757e-06
 Reference value :  3.16914e-06
 Reference value :  3.21311e-06
 Reference value :  3.25010e-06
 Reference value :  3.25011e-06
 Reference value :  3.25013e-06
 Reference value :  3.25017e-06
 Reference value :  3.25020e-06
 Reference value :  3.25020e-06
 Reference value :  3.25020e-06
 Reference value :  3.25021e-06
 Reference value :  3.25021e-06
 Reference value :  3.25022e-06
 Reference value :  3.25025e-06
 Reference value :  3.25029e-06
 Reference value :  3.25039e-06
 Reference value :  3.25058e-06
 Reference value :  3.25091e-06
 Reference value :  3.25140e-06
 Reference value :  3.25204e-06
 Reference value :  3.25262e-06
 Reference value :  3.25330e-06
 Reference value :  3.25414e-06
 Reference value :  3.25474e-06
 Reference value :  3.25542e-06
 Reference value :  3.25624e-06
 Reference value :  3.25725e-06
 Reference value :  3.25822e-06
 Reference value :  3.26016e-06
 Reference value :  3.26209e-06
 Reference value :  3.26524e-06
 Reference value :  3.26909e-06
 Reference value :  3.27681e-06
 Reference value :  3.29224e-06
 Reference value :  3.32309e-06
 Reference value :  3.38480e-06
 Reference value :  3.50000e-06
 Reference value :  3.50001e-06
 Reference value :  3.50003e-06
 Reference value :  3.50007e-06
 Reference value :  3.50010e-06
 Reference value :  3.50010e-06
 Reference value :  3.50011e-06
 Reference value :  3.50013e-06
 Reference value :  3.50016e-06
 Reference value :  3.50023e-06
 Reference value :  3.50037e-06
 Reference value :  3.50054e-06
 Reference value :  3.50090e-06
 Reference value :  3.50140e-06
 Reference value :  3.50191e-06
 Reference value :  3.50242e-06
 Reference value :  3.50304e-06
 Reference value :  3.50370e-06
 Reference value :  3.50456e-06
 Reference value :  3.50535e-06
 Reference value :  3.50629e-06
 Reference value :  3.50742e-06
 Reference value :  3.50872e-06
 Reference value :  3.50987e-06
 Reference value :  3.51106e-06
 Reference value :  3.51249e-06
 Reference value :  3.51408e-06
 Reference value :  3.51568e-06
 Reference value :  3.51757e-06
 Reference value :  3.52102e-06
 Reference value :  3.52603e-06
 Reference value :  3.53574e-06
 Reference value :  3.55410e-06
 Reference value :  3.58811e-06
 Reference value :  3.65615e-06
 Reference value :  3.75010e-06
 Reference value :  3.75011e-06
 Reference value :  3.75013e-06
 Reference value :  3.75017e-06
 Reference value :  3.75020e-06
 Reference value :  3.75020e-06
 Reference value :  3.75020e-06
 Reference value :  3.75021e-06
 Reference value :  3.75021e-06
 Reference value :  3.75022e-06
 Reference value :  3.75025e-06
 Reference value :  3.75029e-06
 Reference value :  3.75039e-06
 Reference value :  3.75058e-06
 Reference value :  3.75091e-06
 Reference value :  3.75140e-06
 Reference value :  3.75198e-06
 Reference value :  3.75258e-06
 Reference value :  3.75322e-06
 Reference value :  3.75407e-06
 Reference value :  3.75468e-06
 Reference value :  3.75540e-06
 Reference value :  3.75605e-06
 Reference value :  3.75677e-06
 Reference value :  3.75767e-06
 Reference value :  3.75868e-06
 Reference value :  3.75967e-06
 Reference value :  3.76119e-06
 Reference value :  3.76282e-06
 Reference value :  3.76512e-06
 Reference value :  3.76792e-06
 Reference value :  3.77213e-06
 Reference value :  3.78055e-06
 Reference value :  3.79495e-06
 Reference value :  3.82374e-06
 Reference value :  3.88131e-06
 Reference value :  3.99646e-06
 Reference value :  4.00000e-06
 Reference value :  4.00001e-06
 Reference value :  4.00003e-06
 Reference value :  4.00007e-06
 Reference value :  4.00010e-06
 Reference value :  4.00010e-06
 Reference value :  4.00011e-06
 Reference value :  4.00013e-06
 Reference value :  4.00016e-06
 Reference value :  4.00023e-06
 Reference value :  4.00037e-06
 Reference value :  4.00054e-06
 Reference value :  4.00090e-06
 Reference value :  4.00139e-06
 Reference value :  4.00191e-06
 Reference value :  4.00245e-06
 Reference value :  4.00311e-06
 Reference value :  4.00377e-06
 Reference value :  4.00454e-06
 Reference value :  4.00517e-06
 Reference value :  4.00586e-06
 Reference value :  4.00654e-06
 Reference value :  4.00721e-06
 Reference value :  4.00793e-06
 Reference value :  4.00890e-06
 Reference value :  4.00988e-06
 Reference value :  4.01137e-06
 Reference value :  4.01256e-06
 Reference value :  4.01384e-06
 Reference value :  4.01513e-06
 Reference value :  4.01656e-06
 Reference value :  4.01794e-06
 Reference value :  4.01897e-06
 Reference value :  4.01999e-06
 Reference value :  4.02124e-06
 Reference value :  4.02241e-06
 Reference value :  4.02362e-06
 Reference value :  4.02504e-06
 Reference value :  4.02696e-06
 Reference value :  4.02908e-06
 Reference value :  4.03252e-06
 Reference value :  4.03736e-06
 Reference value :  4.04175e-06
 Reference value :  4.04644e-06
 Reference value :  4.04958e-06
 Reference value :  4.05250e-06
 Reference value :  4.05530e-06
 Reference value :  4.05833e-06
 Reference value :  4.06309e-06
 Reference value :  4.06825e-06
 Reference value :  4.07604e-06
 Reference value :  4.08676e-06
 Reference value :  4.10180e-06
 Reference value :  4.12423e-06
 Reference value :  4.14488e-06
 Reference value :  4.17445e-06
 Reference value :  4.21085e-06
 Reference value :  4.25010e-06
 Reference value :  4.25011e-06
 Reference value :  4.25013e-06
 Reference value :  4.25017e-06
 Reference value :  4.25020e-06
 Reference value :  4.25020e-06
 Reference value :  4.25020e-06
 Reference value :  4.25021e-06
 Reference value :  4.25021e-06
 Reference value :  4.25022e-06
 Reference value :  4.25025e-06
 Reference value :  4.25029e-06
 Reference value :  4.25039e-06
 Reference value :  4.25058e-06
 Reference value :  4.25091e-06
 Reference value :  4.25140e-06
 Reference value :  4.25204e-06
 Reference value :  4.25261e-06
 Reference value :  4.25330e-06
 Reference value :  4.25414e-06
 Reference value :  4.25475e-06
 Reference value :  4.25545e-06
 Reference value :  4.25634e-06
 Reference value :  4.25722e-06
 Reference value :  4.25830e-06
 Reference value :  4.26021e-06
 Reference value :  4.26215e-06
 Reference value :  4.26530e-06
 Reference value :  4.26922e-06
 Reference value :  4.27705e-06
 Reference value :  4.29272e-06
 Reference value :  4.32405e-06
 Reference value :  4.38671e-06
 Reference value :  4.50000e-06
 Reference value :  4.50001e-06
 Reference value :  4.50003e-06
 Reference value :  4.50007e-06
 Reference value :  4.50010e-06
 Reference value :  4.50010e-06
 Reference value :  4.50011e-06
 Reference value :  4.50013e-06
 Reference value :  4.50016e-06
 Reference value :  4.50023e-06
 Reference value :  4.50037e-06
 Reference value :  4.50054e-06
 Reference value :  4.50090e-06
 Reference value :  4.50139e-06
 Reference value :  4.50191e-06
 Reference value :  4.50245e-06
 Reference value :  4.50311e-06
 Reference value :  4.50377e-06
 Reference value :  4.50451e-06
 Reference value :  4.50536e-06
 Reference value :  4.50619e-06
 Reference value :  4.50732e-06
 Reference value :  4.50870e-06
 Reference value :  4.50995e-06
 Reference value :  4.51122e-06
 Reference value :  4.51239e-06
 Reference value :  4.51373e-06
 Reference value :  4.51505e-06
 Reference value :  4.51658e-06
 Reference value :  4.51965e-06
 Reference value :  4.52535e-06
 Reference value :  4.53644e-06
 Reference value :  4.55862e-06
 Reference value :  4.60298e-06
 Reference value :  4.69171e-06
 Reference value :  4.75010e-06
 Reference value :  4.75011e-06
 Reference value :  4.75013e-06
 Reference value :  4.75017e-06
 Reference value :  4.75020e-06
 Reference value :  4.75020e-06
 Reference value :  4.75020e-06
 Reference value :  4.75021e-06
 Reference value :  4.75021e-06
 Reference value :  4.75022e-06
 Reference value :  4.75025e-06
 Reference value :  4.75029e-06
 Reference value :  4.75039e-06
 Reference value :  4.75058e-06
 Reference value :  4.75091e-06
 Reference value :  4.75140e-06
 Reference value :  4.75204e-06
 Reference value :  4.75261e-06
 Reference value :  4.75330e-06
 Reference value :  4.75414e-06
 Reference value :  4.75475e-06
 Reference value :  4.75545e-06
 Reference value :  4.75614e-06
 Reference value :  4.75687e-06
 Reference value :  4.75782e-06
 Reference value :  4.75887e-06
 Reference value :  4.76097e-06
 Reference value :  4.76314e-06
 Reference value :  4.76693e-06
 Reference value :  4.77179e-06
 Reference value :  4.78149e-06
 Reference value :  4.80089e-06
 Reference value :  4.83970e-06
 Reference value :  4.91731e-06
 Reference value :  5.00000e-06
 Reference value :  5.00001e-06
 Reference value :  5.00003e-06
 Reference value :  5.00007e-06
 Reference value :  5.00010e-06
 Reference value :  5.00010e-06
 Reference value :  5.00011e-06
 Reference value :  5.00013e-06
 Reference value :  5.00016e-06
 Reference value :  5.00023e-06
 Reference value :  5.00036e-06
 Reference value :  5.00054e-06
 Reference value :  5.00089e-06
 Reference value :  5.00138e-06
 Reference value :  5.00189e-06
 Reference value :  5.00243e-06
 Reference value :  5.00309e-06
 Reference value :  5.00375e-06
 Reference value :  5.00452e-06
 Reference value :  5.00518e-06
 Reference value :  5.00589e-06
 Reference value :  5.00676e-06
 Reference value :  5.00755e-06
 Reference value :  5.00839e-06
 Reference value :  5.00956e-06
 Reference value :  5.01076e-06
 Reference value :  5.01294e-06
 Reference value :  5.01553e-06
 Reference value :  5.01747e-06
 Reference value :  5.01913e-06
 Reference value :  5.02072e-06
 Reference value :  5.02236e-06
 Reference value :  5.02401e-06
 Reference value :  5.02583e-06
 Reference value :  5.02779e-06
 Reference value :  5.03055e-06
 Reference value :  5.03419e-06
 Reference value :  5.03972e-06
 Reference value :  5.04666e-06
 Reference value :  5.05513e-06
 Reference value :  5.06283e-06
 Reference value :  5.06865e-06
 Reference value :  5.07417e-06
 Reference value :  5.08131e-06
 Reference value :  5.08841e-06
 Reference value :  5.09496e-06
 Reference value :  5.10316e-06
 Reference value :  5.11202e-06
 Reference value :  5.12710e-06
 Reference value :  5.14521e-06
 Reference value :  5.17411e-06
 Reference value :  5.21631e-06
 Reference value :  5.25010e-06
 Reference value :  5.25011e-06
 Reference value :  5.25013e-06
 Reference value :  5.25017e-06
 Reference value :  5.25020e-06
 Reference value :  5.25020e-06
 Reference value :  5.25020e-06
 Reference value :  5.25021e-06
 Reference value :  5.25021e-06
 Reference value :  5.25022e-06
 Reference value :  5.25025e-06
 Reference value :  5.25029e-06
 Reference value :  5.25039e-06
 Reference value :  5.25057e-06
 Reference value :  5.25090e-06
 Reference value :  5.25139e-06
 Reference value :  5.25201e-06
 Reference value :  5.25260e-06
 Reference value :  5.25328e-06
 Reference value :  5.25413e-06
 Reference value :  5.25473e-06
 Reference value :  5.25541e-06
 Reference value :  5.25625e-06
 Reference value :  5.25724e-06
 Reference value :  5.25823e-06
 Reference value :  5.26020e-06
 Reference value :  5.26212e-06
 Reference value :  5.26530e-06
 Reference value :  5.26916e-06
 Reference value :  5.27689e-06
 Reference value :  5.29234e-06
 Reference value :  5.32326e-06
 Reference value :  5.38508e-06
 Reference value :  5.50000e-06
 Reference value :  5.50001e-06
 Reference value :  5.50003e-06
 Reference value :  5.50007e-06
 Reference value :  5.50010e-06
 Reference value :  5.50010e-06
 Reference value :  5.50011e-06
 Reference value :  5.50013e-06
 Reference value :  5.50016e-06
 Reference value :  5.50023e-06
 Reference value :  5.50037e-06
 Reference value :  5.50054e-06
 Reference value :  5.50090e-06
 Reference value :  5.50140e-06
 Reference value :  5.50191e-06
 Reference value :  5.50242e-06
 Reference value :  5.50304e-06
 Reference value :  5.50370e-06
 Reference value :  5.50456e-06
 Reference value :  5.50538e-06
 Reference value :  5.50630e-06
 Reference value :  5.50761e-06
 Reference value :  5.50882e-06
 Reference value :  5.51017e-06
 Reference value :  5.51151e-06
 Reference value :  5.51282e-06
 Reference value :  5.51419e-06
 Reference value :  5.51573e-06
 Reference value :  5.51746e-06
 Reference value :  5.52057e-06
 Reference value :  5.52512e-06
 Reference value :  5.53376e-06
 Reference value :  5.54980e-06
 Reference value :  5.57949e-06
 Reference value :  5.63840e-06
 Reference value :  5.71202e-06
 Reference value :  5.75010e-06
 Reference value :  5.75011e-06
 Reference value :  5.75013e-06
 Reference value :  5.75017e-06
 Reference value :  5.75020e-06
 Reference value :  5.75020e-06
 Reference value :  5.75020e-06
 Reference value :  5.75021e-06
 Reference value :  5.75021e-06
 Reference value :  5.75022e-06
 Reference value :  5.75025e-06
 Reference value :  5.75029e-06
 Reference value :  5.75039e-06
 Reference value :  5.75057e-06
 Reference value :  5.75090e-06
 Reference value :  5.75139e-06
 Reference value :  5.75202e-06
 Reference value :  5.75260e-06
 Reference value :  5.75327e-06
 Reference value :  5.75412e-06
 Reference value :  5.75472e-06
 Reference value :  5.75540e-06
 Reference value :  5.75609e-06
 Reference value :  5.75681e-06
 Reference value :  5.75776e-06
 Reference value :  5.75881e-06
 Reference value :  5.76092e-06
 Reference value :  5.76305e-06
 Reference value :  5.76680e-06
 Reference value :  5.77149e-06
 Reference value :  5.77840e-06
 Reference value :  5.78683e-06
 Reference value :  5.79758e-06
 Reference value :  5.81346e-06
 Reference value :  5.84287e-06
 Reference value :  5.89267e-06
 Reference value :  5.95240e-06
 Reference value :  6.00000e-06
 Reference value :  6.00001e-06
 Reference value :  6.00003e-06
 Reference value :  6.00007e-06
 Reference value :  6.00010e-06
 Reference value :  6.00010e-06
 Reference value :  6.00011e-06
 Reference value :  6.00013e-06
 Reference value :  6.00016e-06
 Reference value :  6.00023e-06
 Reference value :  6.00037e-06
 Reference value :  6.00054e-06
 Reference value :  6.00090e-06
 Reference value :  6.00139e-06
 Reference value :  6.00191e-06
 Reference value :  6.00245e-06
 Reference value :  6.00311e-06
 Reference value :  6.00378e-06
 Reference value :  6.00456e-06
 Reference value :  6.00522e-06
 Reference value :  6.00593e-06
 Reference value :  6.00669e-06
 Reference value :  6.00745e-06
 Reference value :  6.00827e-06
 Reference value :  6.00940e-06
 Reference value :  6.01066e-06
 Reference value :  6.01274e-06
 Reference value :  6.01533e-06
 Reference value :  6.01726e-06
 Reference value :  6.01938e-06
 Reference value :  6.02101e-06
 Reference value :  6.02279e-06
 Reference value :  6.02456e-06
 Reference value :  6.02648e-06
 Reference value :  6.02861e-06
 Reference value :  6.03102e-06
 Reference value :  6.03460e-06
 Reference value :  6.03940e-06
 Reference value :  6.04565e-06
 Reference value :  6.04975e-06
 Reference value :  6.05419e-06
 Reference value :  6.05950e-06
 Reference value :  6.06515e-06
 Reference value :  6.07309e-06
 Reference value :  6.07938e-06
 Reference value :  6.08694e-06
 Reference value :  6.09752e-06
 Reference value :  6.11394e-06
 Reference value :  6.13345e-06
 Reference value :  6.16971e-06
 Reference value :  6.22136e-06
 Reference value :  6.25010e-06
 Reference value :  6.25011e-06
 Reference value :  6.25013e-06
 Reference value :  6.25017e-06
 Reference value :  6.25020e-06
 Reference value :  6.25020e-06
 Reference value :  6.25020e-06
 Reference value :  6.25021e-06
 Reference value :  6.25021e-06
 Reference value :  6.25022e-06
 Reference value :  6.25025e-06
 Reference value :  6.25029e-06
 Reference value :  6.25039e-06
 Reference value :  6.25058e-06
 Reference value :  6.25091e-06
 Reference value :  6.25140e-06
 Reference value :  6.25204e-06
 Reference value :  6.25261e-06
 Reference value :  6.25330e-06
 Reference value :  6.25414e-06
 Reference value :  6.25473e-06
 Reference value :  6.25542e-06
 Reference value :  6.25625e-06
 Reference value :  6.25724e-06
 Reference value :  6.25822e-06
 Reference value :  6.26019e-06
 Reference value :  6.26211e-06
 Reference value :  6.26528e-06
 Reference value :  6.26914e-06
 Reference value :  6.27685e-06
 Reference value :  6.29229e-06
 Reference value :  6.32315e-06
 Reference value :  6.38488e-06
 Reference value :  6.50000e-06
 Reference value :  6.50001e-06
 Reference value :  6.50003e-06
 Reference value :  6.50007e-06
 Reference value :  6.50010e-06
 Reference value :  6.50010e-06
 Reference value :  6.50011e-06
 Reference value :  6.50013e-06
 Reference value :  6.50016e-06
 Reference value :  6.50023e-06
 Reference value :  6.50037e-06
 Reference value :  6.50054e-06
 Reference value :  6.50090e-06
 Reference value :  6.50140e-06
 Reference value :  6.50191e-06
 Reference value :  6.50242e-06
 Reference value :  6.50304e-06
 Reference value :  6.50370e-06
 Reference value :  6.50456e-06
 Reference value :  6.50535e-06
 Reference value :  6.50628e-06
 Reference value :  6.50743e-06
 Reference value :  6.50874e-06
 Reference value :  6.50988e-06
 Reference value :  6.51108e-06
 Reference value :  6.51219e-06
 Reference value :  6.51350e-06
 Reference value :  6.51482e-06
 Reference value :  6.51631e-06
 Reference value :  6.51928e-06
 Reference value :  6.52523e-06
 Reference value :  6.53560e-06
 Reference value :  6.55632e-06
 Reference value :  6.59777e-06
 Reference value :  6.68066e-06
 Reference value :  6.75010e-06
 Reference value :  6.75011e-06
 Reference value :  6.75013e-06
 Reference value :  6.75017e-06
 Reference value :  6.75020e-06
 Reference value :  6.75020e-06
 Reference value :  6.75020e-06
 Reference value :  6.75021e-06
 Reference value :  6.75021e-06
 Reference value :  6.75022e-06
 Reference value :  6.75025e-06
 Reference value :  6.75029e-06
 Reference value :  6.75039e-06
 Reference value :  6.75058e-06
 Reference value :  6.75091e-06
 Reference value :  6.75141e-06
 Reference value :  6.75204e-06
 Reference value :  6.75262e-06
 Reference value :  6.75330e-06
 Reference value :  6.75415e-06
 Reference value :  6.75476e-06
 Reference value :  6.75545e-06
 Reference value :  6.75615e-06
 Reference value :  6.75688e-06
 Reference value :  6.75786e-06
 Reference value :  6.75891e-06
 Reference value :  6.76012e-06
 Reference value :  6.76153e-06
 Reference value :  6.76371e-06
 Reference value :  6.76570e-06
 Reference value :  6.76944e-06
 Reference value :  6.77403e-06
 Reference value :  6.78322e-06
 Reference value :  6.80160e-06
 Reference value :  6.83836e-06
 Reference value :  6.91187e-06
 Reference value :  7.00000e-06
 Reference value :  7.00001e-06
 Reference value :  7.00003e-06
 Reference value :  7.00007e-06
 Reference value :  7.00010e-06
 Reference value :  7.00010e-06
 Reference value :  7.00011e-06
 Reference value :  7.00013e-06
 Reference value :  7.00016e-06
 Reference value :  7.00023e-06
 Reference value :  7.00036e-06
 Reference value :  7.00054e-06
 Reference value :  7.00089e-06
 Reference value :  7.00139e-06
 Reference value :  7.00190e-06
 Reference value :  7.00243e-06
 Reference value :  7.00309e-06
 Reference value :  7.00375e-06
 Reference value :  7.00452e-06
 Reference value :  7.00515e-06
 Reference value :  7.00584e-06
 Reference value :  7.00653e-06
 Reference value :  7.00722e-06
 Reference value :  7.00794e-06
 Reference value :  7.00900e-06
 Reference value :  7.01000e-06
 Reference value :  7.01151e-06
 Reference value :  7.01299e-06
 Reference value :  7.01436e-06
 Reference value :  7.01585e-06
 Reference value :  7.01735e-06
 Reference value :  7.01921e-06
 Reference value :  7.02035e-06
 Reference value :  7.02162e-06
 Reference value :  7.02274e-06
 Reference value :  7.02399e-06
 Reference value :  7.02540e-06
 Reference value :  7.02721e-06
 Reference value :  7.02936e-06
 Reference value :  7.03264e-06
 Reference value :  7.03702e-06
 Reference value :  7.04201e-06
 Reference value :  7.04816e-06
 Reference value :  7.05873e-06
 Reference value :  7.07893e-06
 Reference value :  7.10891e-06
 Reference value :  7.16553e-06
 Reference value :  7.24085e-06
 Reference value :  7.25010e-06
 Reference value :  7.25011e-06
 Reference value :  7.25013e-06
 Reference value :  7.25017e-06
 Reference value :  7.25020e-06
 Reference value :  7.25020e-06
 Reference value :  7.25020e-06
 Reference value :  7.25021e-06
 Reference value :  7.25021e-06
 Reference value :  7.25022e-06
 Reference value :  7.25025e-06
 Reference value :  7.25029e-06
 Reference value :  7.25039e-06
 Reference value :  7.25057e-06
 Reference value :  7.25091e-06
 Reference value :  7.25140e-06
 Reference value :  7.25203e-06
 Reference value :  7.25261e-06
 Reference value :  7.25329e-06
 Reference value :  7.25413e-06
 Reference value :  7.25472e-06
 Reference value :  7.25541e-06
 Reference value :  7.25626e-06
 Reference value :  7.25720e-06
 Reference value :  7.25821e-06
 Reference value :  7.26023e-06
 Reference value :  7.26212e-06
 Reference value :  7.26531e-06
 Reference value :  7.26914e-06
 Reference value :  7.27681e-06
 Reference value :  7.29216e-06
 Reference value :  7.32284e-06
 Reference value :  7.38421e-06
 Reference value :  7.50000e-06
 Reference value :  7.50001e-06
 Reference value :  7.50003e-06
 Reference value :  7.50007e-06
 Reference value :  7.50010e-06
 Reference value :  7.50010e-06
 Reference value :  7.50011e-06
 Reference value :  7.50013e-06
 Reference value :  7.50016e-06
 Reference value :  7.50023e-06
 Reference value :  7.50037e-06
 Reference value :  7.50054e-06
 Reference value :  7.50090e-06
 Reference value :  7.50142e-06
 Reference value :  7.50194e-06
 Reference value :  7.50248e-06
 Reference value :  7.50310e-06
 Reference value :  7.50379e-06
 Reference value :  7.50457e-06
 Reference value :  7.50545e-06
 Reference value :  7.50635e-06
 Reference value :  7.50759e-06
 Reference value :  7.50890e-06
 Reference value :  7.51015e-06
 Reference value :  7.51142e-06
 Reference value :  7.51260e-06
 Reference value :  7.51394e-06
 Reference value :  7.51526e-06
 Reference value :  7.51679e-06
 Reference value :  7.51985e-06
 Reference value :  7.52559e-06
 Reference value :  7.53637e-06
 Reference value :  7.55793e-06
 Reference value :  7.60104e-06
 Reference value :  7.68727e-06
 Reference value :  7.75010e-06
 Reference value :  7.75011e-06
 Reference value :  7.75013e-06
 Reference value :  7.75017e-06
 Reference value :  7.75020e-06
 Reference value :  7.75020e-06
 Reference value :  7.75020e-06
 Reference value :  7.75021e-06
 Reference value :  7.75021e-06
 Reference value :  7.75022e-06
 Reference value :  7.75025e-06
 Reference value :  7.75029e-06
 Reference value :  7.75039e-06
 Reference value :  7.75058e-06
 Reference value :  7.75092e-06
 Reference value :  7.75141e-06
 Reference value :  7.75198e-06
 Reference value :  7.75258e-06
 Reference value :  7.75322e-06
 Reference value :  7.75406e-06
 Reference value :  7.75467e-06
 Reference value :  7.75537e-06
 Reference value :  7.75603e-06
 Reference value :  7.75675e-06
 Reference value :  7.75765e-06
 Reference value :  7.75866e-06
 Reference value :  7.75969e-06
 Reference value :  7.76118e-06
 Reference value :  7.76286e-06
 Reference value :  7.76515e-06
 Reference value :  7.76802e-06
 Reference value :  7.77228e-06
 Reference value :  7.78080e-06
 Reference value :  7.79785e-06
 Reference value :  7.83194e-06
 Reference value :  7.90012e-06
 Reference value :  8.00000e-06
 Reference value :  8.00001e-06
 Reference value :  8.00003e-06
 Reference value :  8.00007e-06
 Reference value :  8.00010e-06
 Reference value :  8.00010e-06
 Reference value :  8.00011e-06
 Reference value :  8.00013e-06
 Reference value :  8.00016e-06
 Reference value :  8.00023e-06
 Reference value :  8.00036e-06
 Reference value :  8.00054e-06
 Reference value :  8.00090e-06
 Reference value :  8.00141e-06
 Reference value :  8.00193e-06
 Reference value :  8.00248e-06
 Reference value :  8.00314e-06
 Reference value :  8.00383e-06
 Reference value :  8.00461e-06
 Reference value :  8.00525e-06
 Reference value :  8.00594e-06
 Reference value :  8.00661e-06
 Reference value :  8.00738e-06
 Reference value :  8.00810e-06
 Reference value :  8.00920e-06
 Reference value :  8.01025e-06
 Reference value :  8.01192e-06
 Reference value :  8.01319e-06
 Reference value :  8.01454e-06
 Reference value :  8.01599e-06
 Reference value :  8.01753e-06
 Reference value :  8.01924e-06
 Reference value :  8.02141e-06
 Reference value :  8.02437e-06
 Reference value :  8.02711e-06
 Reference value :  8.03125e-06
 Reference value :  8.03857e-06
 Reference value :  8.04649e-06
 Reference value :  8.05753e-06
 Reference value :  8.07402e-06
 Reference value :  8.08968e-06
 Reference value :  8.10147e-06
 Reference value :  8.11259e-06
 Reference value :  8.12991e-06
 Reference value :  8.14954e-06
 Reference value :  8.18532e-06
 Reference value :  8.21374e-06
 Reference value :  8.24752e-06
 Reference value :  8.25010e-06
 Reference value :  8.25011e-06
 Reference value :  8.25013e-06
 Reference value :  8.25017e-06
 Reference value :  8.25020e-06
 Reference value :  8.25020e-06
 Reference value :  8.25020e-06
 Reference value :  8.25021e-06
 Reference value :  8.25021e-06
 Reference value :  8.25022e-06
 Reference value :  8.25025e-06
 Reference value :  8.25029e-06
 Reference value :  8.25039e-06
 Reference value :  8.25057e-06
 Reference value :  8.25095e-06
 Reference value :  8.25141e-06
 Reference value :  8.25198e-06
 Reference value :  8.25257e-06
 Reference value :  8.25321e-06
 Reference value :  8.25405e-06
 Reference value :  8.25495e-06
 Reference value :  8.25613e-06
 Reference value :  8.25753e-06
 Reference value :  8.25885e-06
 Reference value :  8.26111e-06
 Reference value :  8.26351e-06
 Reference value :  8.26729e-06
 Reference value :  8.27292e-06
 Reference value :  8.28419e-06
 Reference value :  8.30671e-06
 Reference value :  8.35151e-06
 Reference value :  8.44110e-06
 Reference value :  8.50000e-06
No. of Data Rows : 1335
ngspice-44 done
