
Note: Compatibility modes selected: hs a


Circuit: ** sch_path: /home/samantha/cace/sar-adc-using-sky130-pdk/runs/run_2025-09-08_19-48-25/parameters/sampling_rate/run_5/sampling_rate.sch

option SCALE: Scale is set to 1e-06 for instance and model parameters
option SCALE: Scale is set to 1e-06 for instance and model parameters
option SCALE: Scale is set to 1e-06 for instance and model parameters
option SCALE: Scale is set to 1e-06 for instance and model parameters
Doing analysis at TEMP = 27.000000 and TNOM = 27.000000

Using KLU as Direct Linear Solver
Operating point simulation skipped by 'uic',
  now using transient initial conditions.
 Reference value :  1.00000e-12
 Reference value :  1.02772e-12
 Reference value :  1.08316e-12
 Reference value :  1.19404e-12
 Reference value :  1.33846e-12
 Reference value :  1.62730e-12
 Reference value :  2.20497e-12
 Reference value :  3.04297e-12
 Reference value :  3.94906e-12
 Reference value :  5.16884e-12
 Reference value :  6.91358e-12
 Reference value :  1.00967e-11
 Reference value :  1.38017e-11
 Reference value :  2.05218e-11
 Reference value :  2.75240e-11
 Reference value :  3.64454e-11
 Reference value :  4.75368e-11
 Reference value :  6.41649e-11
 Reference value :  8.41178e-11
 Reference value :  1.00000e-10
 Reference value :  1.01329e-10
 Reference value :  1.03987e-10
 Reference value :  1.09304e-10
 Reference value :  1.19937e-10
 Reference value :  1.41202e-10
 Reference value :  1.83734e-10
 Reference value :  2.68796e-10
 Reference value :  4.20367e-10
 Reference value :  5.91866e-10
 Reference value :  8.65624e-10
 Reference value :  1.24960e-09
 Reference value :  1.76235e-09
 Reference value :  2.57490e-09
 Reference value :  3.31148e-09
 Reference value :  4.40621e-09
 Reference value :  5.20078e-09
 Reference value :  6.08943e-09
 Reference value :  7.20583e-09
 Reference value :  8.36919e-09
 Reference value :  9.56379e-09
 Reference value :  1.08525e-08
 Reference value :  1.17390e-08
 Reference value :  1.25727e-08
 Reference value :  1.35250e-08
 Reference value :  1.45527e-08
 Reference value :  1.66081e-08
 Reference value :  2.04273e-08
 Reference value :  2.44305e-08
 Reference value :  2.85071e-08
 Reference value :  3.20386e-08
 Reference value :  3.60847e-08
 Reference value :  3.99735e-08
 Reference value :  4.40302e-08
 Reference value :  5.07480e-08
 Reference value :  6.04942e-08
 Reference value :  7.68163e-08
 Reference value :  1.09284e-07
 Reference value :  1.62451e-07
 Reference value :  2.36249e-07
 Reference value :  2.50100e-07
 Reference value :  2.50110e-07
 Reference value :  2.50130e-07
 Reference value :  2.50170e-07
 Reference value :  2.50200e-07
 Reference value :  2.50201e-07
 Reference value :  2.50202e-07
 Reference value :  2.50204e-07
 Reference value :  2.50208e-07
 Reference value :  2.50216e-07
 Reference value :  2.50233e-07
 Reference value :  2.50267e-07
 Reference value :  2.50335e-07
 Reference value :  2.50428e-07
 Reference value :  2.50611e-07
 Reference value :  2.50792e-07
 Reference value :  2.51135e-07
 Reference value :  2.51559e-07
 Reference value :  2.52259e-07
 Reference value :  2.52900e-07
 Reference value :  2.53739e-07
 Reference value :  2.54754e-07
 Reference value :  2.55923e-07
 Reference value :  2.57000e-07
 Reference value :  2.58032e-07
 Reference value :  2.59198e-07
 Reference value :  2.60299e-07
 Reference value :  2.62113e-07
 Reference value :  2.64722e-07
 Reference value :  2.67421e-07
 Reference value :  2.72043e-07
 Reference value :  2.78806e-07
 Reference value :  2.92332e-07
 Reference value :  3.04376e-07
 Reference value :  3.15339e-07
 Reference value :  3.24484e-07
 Reference value :  3.32261e-07
 Reference value :  3.40425e-07
 Reference value :  3.47599e-07
 Reference value :  3.54939e-07
 Reference value :  3.62945e-07
 Reference value :  3.74362e-07
 Reference value :  3.90911e-07
 Reference value :  4.14455e-07
 Reference value :  4.55879e-07
 Reference value :  5.00000e-07
 Reference value :  5.00010e-07
 Reference value :  5.00030e-07
 Reference value :  5.00070e-07
 Reference value :  5.00100e-07
 Reference value :  5.00104e-07
 Reference value :  5.00113e-07
 Reference value :  5.00130e-07
 Reference value :  5.00164e-07
 Reference value :  5.00232e-07
 Reference value :  5.00369e-07
 Reference value :  5.00560e-07
 Reference value :  5.00941e-07
 Reference value :  5.01536e-07
 Reference value :  5.02163e-07
 Reference value :  5.02795e-07
 Reference value :  5.03569e-07
 Reference value :  5.04313e-07
 Reference value :  5.05203e-07
 Reference value :  5.06149e-07
 Reference value :  5.07104e-07
 Reference value :  5.08501e-07
 Reference value :  5.09801e-07
 Reference value :  5.12403e-07
 Reference value :  5.15596e-07
 Reference value :  5.17890e-07
 Reference value :  5.20457e-07
 Reference value :  5.23135e-07
 Reference value :  5.25876e-07
 Reference value :  5.29101e-07
 Reference value :  5.34572e-07
 Reference value :  5.42050e-07
 Reference value :  5.52720e-07
 Reference value :  5.74059e-07
 Reference value :  6.04708e-07
 Reference value :  6.65096e-07
 Reference value :  7.50100e-07
 Reference value :  7.50110e-07
 Reference value :  7.50130e-07
 Reference value :  7.50170e-07
 Reference value :  7.50200e-07
 Reference value :  7.50201e-07
 Reference value :  7.50202e-07
 Reference value :  7.50205e-07
 Reference value :  7.50211e-07
 Reference value :  7.50223e-07
 Reference value :  7.50248e-07
 Reference value :  7.50296e-07
 Reference value :  7.50393e-07
 Reference value :  7.50586e-07
 Reference value :  7.50971e-07
 Reference value :  7.51562e-07
 Reference value :  7.52220e-07
 Reference value :  7.52980e-07
 Reference value :  7.53822e-07
 Reference value :  7.54912e-07
 Reference value :  7.55806e-07
 Reference value :  7.56868e-07
 Reference value :  7.57772e-07
 Reference value :  7.58758e-07
 Reference value :  7.59872e-07
 Reference value :  7.61124e-07
 Reference value :  7.62382e-07
 Reference value :  7.64259e-07
 Reference value :  7.66154e-07
 Reference value :  7.68951e-07
 Reference value :  7.72211e-07
 Reference value :  7.77144e-07
 Reference value :  7.86364e-07
 Reference value :  7.98892e-07
 Reference value :  8.21345e-07
 Reference value :  8.64143e-07
 Reference value :  9.40052e-07
 Reference value :  1.00000e-06
 Reference value :  1.00001e-06
 Reference value :  1.00003e-06
 Reference value :  1.00007e-06
 Reference value :  1.00010e-06
 Reference value :  1.00010e-06
 Reference value :  1.00011e-06
 Reference value :  1.00013e-06
 Reference value :  1.00016e-06
 Reference value :  1.00023e-06
 Reference value :  1.00037e-06
 Reference value :  1.00056e-06
 Reference value :  1.00094e-06
 Reference value :  1.00154e-06
 Reference value :  1.00216e-06
 Reference value :  1.00285e-06
 Reference value :  1.00356e-06
 Reference value :  1.00431e-06
 Reference value :  1.00515e-06
 Reference value :  1.00609e-06
 Reference value :  1.00693e-06
 Reference value :  1.00779e-06
 Reference value :  1.00863e-06
 Reference value :  1.00950e-06
 Reference value :  1.01040e-06
 Reference value :  1.01174e-06
 Reference value :  1.01298e-06
 Reference value :  1.01529e-06
 Reference value :  1.01758e-06
 Reference value :  1.01940e-06
 Reference value :  1.02139e-06
 Reference value :  1.02329e-06
 Reference value :  1.02524e-06
 Reference value :  1.02702e-06
 Reference value :  1.02884e-06
 Reference value :  1.03054e-06
 Reference value :  1.03269e-06
 Reference value :  1.03503e-06
 Reference value :  1.03788e-06
 Reference value :  1.04212e-06
 Reference value :  1.04824e-06
 Reference value :  1.05800e-06
 Reference value :  1.07382e-06
 Reference value :  1.09957e-06
 Reference value :  1.14288e-06
 Reference value :  1.21504e-06
 Reference value :  1.25010e-06
 Reference value :  1.25011e-06
 Reference value :  1.25013e-06
 Reference value :  1.25017e-06
 Reference value :  1.25020e-06
 Reference value :  1.25020e-06
 Reference value :  1.25020e-06
 Reference value :  1.25021e-06
 Reference value :  1.25021e-06
 Reference value :  1.25022e-06
 Reference value :  1.25025e-06
 Reference value :  1.25030e-06
 Reference value :  1.25039e-06
 Reference value :  1.25059e-06
 Reference value :  1.25093e-06
 Reference value :  1.25155e-06
 Reference value :  1.25217e-06
 Reference value :  1.25296e-06
 Reference value :  1.25376e-06
 Reference value :  1.25484e-06
 Reference value :  1.25576e-06
 Reference value :  1.25682e-06
 Reference value :  1.25795e-06
 Reference value :  1.25899e-06
 Reference value :  1.26082e-06
 Reference value :  1.26254e-06
 Reference value :  1.26537e-06
 Reference value :  1.26886e-06
 Reference value :  1.27413e-06
 Reference value :  1.28467e-06
 Reference value :  1.29580e-06
 Reference value :  1.31135e-06
 Reference value :  1.32709e-06
 Reference value :  1.33844e-06
 Reference value :  1.34913e-06
 Reference value :  1.35859e-06
 Reference value :  1.36754e-06
 Reference value :  1.38173e-06
 Reference value :  1.39664e-06
 Reference value :  1.42239e-06
 Reference value :  1.45406e-06
 Reference value :  1.50000e-06
 Reference value :  1.50001e-06
 Reference value :  1.50003e-06
 Reference value :  1.50007e-06
 Reference value :  1.50010e-06
 Reference value :  1.50010e-06
 Reference value :  1.50011e-06
 Reference value :  1.50013e-06
 Reference value :  1.50016e-06
 Reference value :  1.50023e-06
 Reference value :  1.50037e-06
 Reference value :  1.50056e-06
 Reference value :  1.50093e-06
 Reference value :  1.50161e-06
 Reference value :  1.50223e-06
 Reference value :  1.50291e-06
 Reference value :  1.50362e-06
 Reference value :  1.50438e-06
 Reference value :  1.50523e-06
 Reference value :  1.50615e-06
 Reference value :  1.50719e-06
 Reference value :  1.50851e-06
 Reference value :  1.50990e-06
 Reference value :  1.51148e-06
 Reference value :  1.51303e-06
 Reference value :  1.51462e-06
 Reference value :  1.51658e-06
 Reference value :  1.51845e-06
 Reference value :  1.52081e-06
 Reference value :  1.52296e-06
 Reference value :  1.52725e-06
 Reference value :  1.53581e-06
 Reference value :  1.54882e-06
 Reference value :  1.57483e-06
 Reference value :  1.62686e-06
 Reference value :  1.73092e-06
 Reference value :  1.75010e-06
 Reference value :  1.75011e-06
 Reference value :  1.75013e-06
 Reference value :  1.75017e-06
 Reference value :  1.75020e-06
 Reference value :  1.75020e-06
 Reference value :  1.75020e-06
 Reference value :  1.75021e-06
 Reference value :  1.75021e-06
 Reference value :  1.75022e-06
 Reference value :  1.75025e-06
 Reference value :  1.75030e-06
 Reference value :  1.75039e-06
 Reference value :  1.75059e-06
 Reference value :  1.75093e-06
 Reference value :  1.75155e-06
 Reference value :  1.75216e-06
 Reference value :  1.75295e-06
 Reference value :  1.75376e-06
 Reference value :  1.75483e-06
 Reference value :  1.75576e-06
 Reference value :  1.75683e-06
 Reference value :  1.75776e-06
 Reference value :  1.75876e-06
 Reference value :  1.75989e-06
 Reference value :  1.76115e-06
 Reference value :  1.76369e-06
 Reference value :  1.76649e-06
 Reference value :  1.77099e-06
 Reference value :  1.77703e-06
 Reference value :  1.78911e-06
 Reference value :  1.81327e-06
 Reference value :  1.86158e-06
 Reference value :  1.95821e-06
 Reference value :  2.00000e-06
 Reference value :  2.00001e-06
 Reference value :  2.00003e-06
 Reference value :  2.00007e-06
 Reference value :  2.00010e-06
 Reference value :  2.00010e-06
 Reference value :  2.00011e-06
 Reference value :  2.00013e-06
 Reference value :  2.00016e-06
 Reference value :  2.00023e-06
 Reference value :  2.00037e-06
 Reference value :  2.00055e-06
 Reference value :  2.00092e-06
 Reference value :  2.00160e-06
 Reference value :  2.00223e-06
 Reference value :  2.00291e-06
 Reference value :  2.00363e-06
 Reference value :  2.00439e-06
 Reference value :  2.00523e-06
 Reference value :  2.00615e-06
 Reference value :  2.00717e-06
 Reference value :  2.00818e-06
 Reference value :  2.00924e-06
 Reference value :  2.01025e-06
 Reference value :  2.01134e-06
 Reference value :  2.01279e-06
 Reference value :  2.01461e-06
 Reference value :  2.01757e-06
 Reference value :  2.02043e-06
 Reference value :  2.02282e-06
 Reference value :  2.02486e-06
 Reference value :  2.02692e-06
 Reference value :  2.02893e-06
 Reference value :  2.03101e-06
 Reference value :  2.03338e-06
 Reference value :  2.03588e-06
 Reference value :  2.03883e-06
 Reference value :  2.04329e-06
 Reference value :  2.04944e-06
 Reference value :  2.05635e-06
 Reference value :  2.06262e-06
 Reference value :  2.06793e-06
 Reference value :  2.07354e-06
 Reference value :  2.07756e-06
 Reference value :  2.08144e-06
 Reference value :  2.08541e-06
 Reference value :  2.09036e-06
 Reference value :  2.09743e-06
 Reference value :  2.10440e-06
 Reference value :  2.11093e-06
 Reference value :  2.11907e-06
 Reference value :  2.13150e-06
 Reference value :  2.15366e-06
 Reference value :  2.18849e-06
 Reference value :  2.25010e-06
 Reference value :  2.25011e-06
 Reference value :  2.25013e-06
 Reference value :  2.25017e-06
 Reference value :  2.25020e-06
 Reference value :  2.25020e-06
 Reference value :  2.25020e-06
 Reference value :  2.25021e-06
 Reference value :  2.25021e-06
 Reference value :  2.25022e-06
 Reference value :  2.25025e-06
 Reference value :  2.25030e-06
 Reference value :  2.25039e-06
 Reference value :  2.25059e-06
 Reference value :  2.25092e-06
 Reference value :  2.25154e-06
 Reference value :  2.25216e-06
 Reference value :  2.25295e-06
 Reference value :  2.25375e-06
 Reference value :  2.25483e-06
 Reference value :  2.25571e-06
 Reference value :  2.25674e-06
 Reference value :  2.25773e-06
 Reference value :  2.25876e-06
 Reference value :  2.26048e-06
 Reference value :  2.26210e-06
 Reference value :  2.26497e-06
 Reference value :  2.26811e-06
 Reference value :  2.27319e-06
 Reference value :  2.28282e-06
 Reference value :  2.30208e-06
 Reference value :  2.33853e-06
 Reference value :  2.41144e-06
 Reference value :  2.49724e-06
 Reference value :  2.50000e-06
 Reference value :  2.50001e-06
 Reference value :  2.50003e-06
 Reference value :  2.50007e-06
 Reference value :  2.50010e-06
 Reference value :  2.50010e-06
 Reference value :  2.50011e-06
 Reference value :  2.50013e-06
 Reference value :  2.50016e-06
 Reference value :  2.50023e-06
 Reference value :  2.50037e-06
 Reference value :  2.50055e-06
 Reference value :  2.50092e-06
 Reference value :  2.50160e-06
 Reference value :  2.50223e-06
 Reference value :  2.50286e-06
 Reference value :  2.50357e-06
 Reference value :  2.50431e-06
 Reference value :  2.50516e-06
 Reference value :  2.50607e-06
 Reference value :  2.50711e-06
 Reference value :  2.50845e-06
 Reference value :  2.50982e-06
 Reference value :  2.51139e-06
 Reference value :  2.51280e-06
 Reference value :  2.51427e-06
 Reference value :  2.51632e-06
 Reference value :  2.51822e-06
 Reference value :  2.52033e-06
 Reference value :  2.52308e-06
 Reference value :  2.52648e-06
 Reference value :  2.53212e-06
 Reference value :  2.54063e-06
 Reference value :  2.55512e-06
 Reference value :  2.58010e-06
 Reference value :  2.62279e-06
 Reference value :  2.70233e-06
 Reference value :  2.75010e-06
 Reference value :  2.75011e-06
 Reference value :  2.75013e-06
 Reference value :  2.75017e-06
 Reference value :  2.75020e-06
 Reference value :  2.75020e-06
 Reference value :  2.75020e-06
 Reference value :  2.75021e-06
 Reference value :  2.75021e-06
 Reference value :  2.75022e-06
 Reference value :  2.75025e-06
 Reference value :  2.75030e-06
 Reference value :  2.75040e-06
 Reference value :  2.75059e-06
 Reference value :  2.75094e-06
 Reference value :  2.75155e-06
 Reference value :  2.75218e-06
 Reference value :  2.75295e-06
 Reference value :  2.75377e-06
 Reference value :  2.75484e-06
 Reference value :  2.75575e-06
 Reference value :  2.75682e-06
 Reference value :  2.75775e-06
 Reference value :  2.75874e-06
 Reference value :  2.75988e-06
 Reference value :  2.76115e-06
 Reference value :  2.76246e-06
 Reference value :  2.76423e-06
 Reference value :  2.76650e-06
 Reference value :  2.76925e-06
 Reference value :  2.77296e-06
 Reference value :  2.77814e-06
 Reference value :  2.78849e-06
 Reference value :  2.80735e-06
 Reference value :  2.84507e-06
 Reference value :  2.92051e-06
 Reference value :  3.00000e-06
 Reference value :  3.00001e-06
 Reference value :  3.00003e-06
 Reference value :  3.00007e-06
 Reference value :  3.00010e-06
 Reference value :  3.00010e-06
 Reference value :  3.00011e-06
 Reference value :  3.00013e-06
 Reference value :  3.00016e-06
 Reference value :  3.00023e-06
 Reference value :  3.00037e-06
 Reference value :  3.00055e-06
 Reference value :  3.00092e-06
 Reference value :  3.00160e-06
 Reference value :  3.00223e-06
 Reference value :  3.00291e-06
 Reference value :  3.00362e-06
 Reference value :  3.00438e-06
 Reference value :  3.00522e-06
 Reference value :  3.00612e-06
 Reference value :  3.00707e-06
 Reference value :  3.00793e-06
 Reference value :  3.00885e-06
 Reference value :  3.00983e-06
 Reference value :  3.01077e-06
 Reference value :  3.01210e-06
 Reference value :  3.01350e-06
 Reference value :  3.01566e-06
 Reference value :  3.01721e-06
 Reference value :  3.01892e-06
 Reference value :  3.02050e-06
 Reference value :  3.02230e-06
 Reference value :  3.02398e-06
 Reference value :  3.02549e-06
 Reference value :  3.02721e-06
 Reference value :  3.02871e-06
 Reference value :  3.03029e-06
 Reference value :  3.03218e-06
 Reference value :  3.03453e-06
 Reference value :  3.03716e-06
 Reference value :  3.04142e-06
 Reference value :  3.04805e-06
 Reference value :  3.05862e-06
 Reference value :  3.07688e-06
 Reference value :  3.09995e-06
 Reference value :  3.14611e-06
 Reference value :  3.19531e-06
 Reference value :  3.23840e-06
 Reference value :  3.25010e-06
 Reference value :  3.25011e-06
 Reference value :  3.25013e-06
 Reference value :  3.25017e-06
 Reference value :  3.25020e-06
 Reference value :  3.25020e-06
 Reference value :  3.25020e-06
 Reference value :  3.25021e-06
 Reference value :  3.25021e-06
 Reference value :  3.25022e-06
 Reference value :  3.25025e-06
 Reference value :  3.25030e-06
 Reference value :  3.25039e-06
 Reference value :  3.25059e-06
 Reference value :  3.25093e-06
 Reference value :  3.25154e-06
 Reference value :  3.25217e-06
 Reference value :  3.25294e-06
 Reference value :  3.25375e-06
 Reference value :  3.25482e-06
 Reference value :  3.25576e-06
 Reference value :  3.25682e-06
 Reference value :  3.25793e-06
 Reference value :  3.25898e-06
 Reference value :  3.26078e-06
 Reference value :  3.26250e-06
 Reference value :  3.26531e-06
 Reference value :  3.26879e-06
 Reference value :  3.27402e-06
 Reference value :  3.28447e-06
 Reference value :  3.30315e-06
 Reference value :  3.33713e-06
 Reference value :  3.40508e-06
 Reference value :  3.50000e-06
 Reference value :  3.50001e-06
 Reference value :  3.50003e-06
 Reference value :  3.50007e-06
 Reference value :  3.50010e-06
 Reference value :  3.50010e-06
 Reference value :  3.50011e-06
 Reference value :  3.50013e-06
 Reference value :  3.50016e-06
 Reference value :  3.50023e-06
 Reference value :  3.50037e-06
 Reference value :  3.50056e-06
 Reference value :  3.50093e-06
 Reference value :  3.50161e-06
 Reference value :  3.50223e-06
 Reference value :  3.50286e-06
 Reference value :  3.50357e-06
 Reference value :  3.50431e-06
 Reference value :  3.50516e-06
 Reference value :  3.50606e-06
 Reference value :  3.50702e-06
 Reference value :  3.50838e-06
 Reference value :  3.50965e-06
 Reference value :  3.51122e-06
 Reference value :  3.51251e-06
 Reference value :  3.51391e-06
 Reference value :  3.51570e-06
 Reference value :  3.51759e-06
 Reference value :  3.51945e-06
 Reference value :  3.52227e-06
 Reference value :  3.52504e-06
 Reference value :  3.53015e-06
 Reference value :  3.53745e-06
 Reference value :  3.54957e-06
 Reference value :  3.57138e-06
 Reference value :  3.60731e-06
 Reference value :  3.67414e-06
 Reference value :  3.75010e-06
 Reference value :  3.75011e-06
 Reference value :  3.75013e-06
 Reference value :  3.75017e-06
 Reference value :  3.75020e-06
 Reference value :  3.75020e-06
 Reference value :  3.75020e-06
 Reference value :  3.75021e-06
 Reference value :  3.75021e-06
 Reference value :  3.75022e-06
 Reference value :  3.75025e-06
 Reference value :  3.75030e-06
 Reference value :  3.75040e-06
 Reference value :  3.75059e-06
 Reference value :  3.75094e-06
 Reference value :  3.75154e-06
 Reference value :  3.75218e-06
 Reference value :  3.75295e-06
 Reference value :  3.75377e-06
 Reference value :  3.75483e-06
 Reference value :  3.75575e-06
 Reference value :  3.75682e-06
 Reference value :  3.75776e-06
 Reference value :  3.75875e-06
 Reference value :  3.75989e-06
 Reference value :  3.76116e-06
 Reference value :  3.76249e-06
 Reference value :  3.76425e-06
 Reference value :  3.76658e-06
 Reference value :  3.76934e-06
 Reference value :  3.77310e-06
 Reference value :  3.77833e-06
 Reference value :  3.78880e-06
 Reference value :  3.80914e-06
 Reference value :  3.84982e-06
 Reference value :  3.93118e-06
 Reference value :  4.00000e-06
 Reference value :  4.00001e-06
 Reference value :  4.00003e-06
 Reference value :  4.00007e-06
 Reference value :  4.00010e-06
 Reference value :  4.00010e-06
 Reference value :  4.00011e-06
 Reference value :  4.00013e-06
 Reference value :  4.00016e-06
 Reference value :  4.00023e-06
 Reference value :  4.00037e-06
 Reference value :  4.00055e-06
 Reference value :  4.00092e-06
 Reference value :  4.00160e-06
 Reference value :  4.00223e-06
 Reference value :  4.00291e-06
 Reference value :  4.00363e-06
 Reference value :  4.00438e-06
 Reference value :  4.00522e-06
 Reference value :  4.00613e-06
 Reference value :  4.00697e-06
 Reference value :  4.00785e-06
 Reference value :  4.00875e-06
 Reference value :  4.00972e-06
 Reference value :  4.01065e-06
 Reference value :  4.01196e-06
 Reference value :  4.01333e-06
 Reference value :  4.01560e-06
 Reference value :  4.01720e-06
 Reference value :  4.01890e-06
 Reference value :  4.02047e-06
 Reference value :  4.02227e-06
 Reference value :  4.02357e-06
 Reference value :  4.02482e-06
 Reference value :  4.02650e-06
 Reference value :  4.02805e-06
 Reference value :  4.02966e-06
 Reference value :  4.03153e-06
 Reference value :  4.03348e-06
 Reference value :  4.03658e-06
 Reference value :  4.04036e-06
 Reference value :  4.04791e-06
 Reference value :  4.06147e-06
 Reference value :  4.07487e-06
 Reference value :  4.08731e-06
 Reference value :  4.09626e-06
 Reference value :  4.10486e-06
 Reference value :  4.11386e-06
 Reference value :  4.12224e-06
 Reference value :  4.13711e-06
 Reference value :  4.15331e-06
 Reference value :  4.17722e-06
 Reference value :  4.20973e-06
 Reference value :  4.25010e-06
 Reference value :  4.25011e-06
 Reference value :  4.25013e-06
 Reference value :  4.25017e-06
 Reference value :  4.25020e-06
 Reference value :  4.25020e-06
 Reference value :  4.25020e-06
 Reference value :  4.25021e-06
 Reference value :  4.25021e-06
 Reference value :  4.25022e-06
 Reference value :  4.25025e-06
 Reference value :  4.25030e-06
 Reference value :  4.25040e-06
 Reference value :  4.25059e-06
 Reference value :  4.25093e-06
 Reference value :  4.25154e-06
 Reference value :  4.25218e-06
 Reference value :  4.25294e-06
 Reference value :  4.25376e-06
 Reference value :  4.25483e-06
 Reference value :  4.25578e-06
 Reference value :  4.25687e-06
 Reference value :  4.25797e-06
 Reference value :  4.25904e-06
 Reference value :  4.26083e-06
 Reference value :  4.26257e-06
 Reference value :  4.26540e-06
 Reference value :  4.26892e-06
 Reference value :  4.27418e-06
 Reference value :  4.28469e-06
 Reference value :  4.30326e-06
 Reference value :  4.33692e-06
 Reference value :  4.40425e-06
 Reference value :  4.50000e-06
 Reference value :  4.50001e-06
 Reference value :  4.50003e-06
 Reference value :  4.50007e-06
 Reference value :  4.50010e-06
 Reference value :  4.50010e-06
 Reference value :  4.50011e-06
 Reference value :  4.50013e-06
 Reference value :  4.50016e-06
 Reference value :  4.50023e-06
 Reference value :  4.50037e-06
 Reference value :  4.50056e-06
 Reference value :  4.50092e-06
 Reference value :  4.50161e-06
 Reference value :  4.50223e-06
 Reference value :  4.50291e-06
 Reference value :  4.50362e-06
 Reference value :  4.50438e-06
 Reference value :  4.50523e-06
 Reference value :  4.50615e-06
 Reference value :  4.50711e-06
 Reference value :  4.50847e-06
 Reference value :  4.50977e-06
 Reference value :  4.51127e-06
 Reference value :  4.51298e-06
 Reference value :  4.51452e-06
 Reference value :  4.51599e-06
 Reference value :  4.51760e-06
 Reference value :  4.51927e-06
 Reference value :  4.52118e-06
 Reference value :  4.52501e-06
 Reference value :  4.53054e-06
 Reference value :  4.54158e-06
 Reference value :  4.56368e-06
 Reference value :  4.60749e-06
 Reference value :  4.66205e-06
 Reference value :  4.74245e-06
 Reference value :  4.75010e-06
 Reference value :  4.75011e-06
 Reference value :  4.75013e-06
 Reference value :  4.75017e-06
 Reference value :  4.75020e-06
 Reference value :  4.75020e-06
 Reference value :  4.75020e-06
 Reference value :  4.75021e-06
 Reference value :  4.75021e-06
 Reference value :  4.75022e-06
 Reference value :  4.75025e-06
 Reference value :  4.75030e-06
 Reference value :  4.75040e-06
 Reference value :  4.75059e-06
 Reference value :  4.75094e-06
 Reference value :  4.75154e-06
 Reference value :  4.75217e-06
 Reference value :  4.75294e-06
 Reference value :  4.75376e-06
 Reference value :  4.75482e-06
 Reference value :  4.75573e-06
 Reference value :  4.75680e-06
 Reference value :  4.75773e-06
 Reference value :  4.75872e-06
 Reference value :  4.75985e-06
 Reference value :  4.76112e-06
 Reference value :  4.76243e-06
 Reference value :  4.76420e-06
 Reference value :  4.76646e-06
 Reference value :  4.76921e-06
 Reference value :  4.77291e-06
 Reference value :  4.77807e-06
 Reference value :  4.78839e-06
 Reference value :  4.80721e-06
 Reference value :  4.84484e-06
 Reference value :  4.92009e-06
 Reference value :  5.00000e-06
 Reference value :  5.00001e-06
 Reference value :  5.00003e-06
 Reference value :  5.00007e-06
 Reference value :  5.00010e-06
 Reference value :  5.00010e-06
 Reference value :  5.00011e-06
 Reference value :  5.00013e-06
 Reference value :  5.00016e-06
 Reference value :  5.00023e-06
 Reference value :  5.00037e-06
 Reference value :  5.00055e-06
 Reference value :  5.00092e-06
 Reference value :  5.00160e-06
 Reference value :  5.00223e-06
 Reference value :  5.00290e-06
 Reference value :  5.00363e-06
 Reference value :  5.00439e-06
 Reference value :  5.00524e-06
 Reference value :  5.00615e-06
 Reference value :  5.00702e-06
 Reference value :  5.00792e-06
 Reference value :  5.00886e-06
 Reference value :  5.00985e-06
 Reference value :  5.01086e-06
 Reference value :  5.01224e-06
 Reference value :  5.01394e-06
 Reference value :  5.01543e-06
 Reference value :  5.01706e-06
 Reference value :  5.01871e-06
 Reference value :  5.02048e-06
 Reference value :  5.02224e-06
 Reference value :  5.02365e-06
 Reference value :  5.02504e-06
 Reference value :  5.02674e-06
 Reference value :  5.02837e-06
 Reference value :  5.02960e-06
 Reference value :  5.03094e-06
 Reference value :  5.03246e-06
 Reference value :  5.03404e-06
 Reference value :  5.03602e-06
 Reference value :  5.03997e-06
 Reference value :  5.04524e-06
 Reference value :  5.05533e-06
 Reference value :  5.07009e-06
 Reference value :  5.08711e-06
 Reference value :  5.10537e-06
 Reference value :  5.12260e-06
 Reference value :  5.15197e-06
 Reference value :  5.19829e-06
 Reference value :  5.25010e-06
 Reference value :  5.25011e-06
 Reference value :  5.25013e-06
 Reference value :  5.25017e-06
 Reference value :  5.25020e-06
 Reference value :  5.25020e-06
 Reference value :  5.25020e-06
 Reference value :  5.25021e-06
 Reference value :  5.25021e-06
 Reference value :  5.25022e-06
 Reference value :  5.25025e-06
 Reference value :  5.25030e-06
 Reference value :  5.25039e-06
 Reference value :  5.25059e-06
 Reference value :  5.25093e-06
 Reference value :  5.25154e-06
 Reference value :  5.25216e-06
 Reference value :  5.25294e-06
 Reference value :  5.25375e-06
 Reference value :  5.25481e-06
 Reference value :  5.25578e-06
 Reference value :  5.25688e-06
 Reference value :  5.25797e-06
 Reference value :  5.25906e-06
 Reference value :  5.26083e-06
 Reference value :  5.26260e-06
 Reference value :  5.26541e-06
 Reference value :  5.26897e-06
 Reference value :  5.27427e-06
 Reference value :  5.28489e-06
 Reference value :  5.30335e-06
 Reference value :  5.33696e-06
 Reference value :  5.40418e-06
 Reference value :  5.50000e-06
 Reference value :  5.50001e-06
 Reference value :  5.50003e-06
 Reference value :  5.50007e-06
 Reference value :  5.50010e-06
 Reference value :  5.50010e-06
 Reference value :  5.50011e-06
 Reference value :  5.50013e-06
 Reference value :  5.50016e-06
 Reference value :  5.50023e-06
 Reference value :  5.50037e-06
 Reference value :  5.50056e-06
 Reference value :  5.50093e-06
 Reference value :  5.50161e-06
 Reference value :  5.50223e-06
 Reference value :  5.50291e-06
 Reference value :  5.50363e-06
 Reference value :  5.50438e-06
 Reference value :  5.50523e-06
 Reference value :  5.50615e-06
 Reference value :  5.50718e-06
 Reference value :  5.50852e-06
 Reference value :  5.50990e-06
 Reference value :  5.51134e-06
 Reference value :  5.51291e-06
 Reference value :  5.51459e-06
 Reference value :  5.51617e-06
 Reference value :  5.51781e-06
 Reference value :  5.51960e-06
 Reference value :  5.52164e-06
 Reference value :  5.52529e-06
 Reference value :  5.53066e-06
 Reference value :  5.54106e-06
 Reference value :  5.56065e-06
 Reference value :  5.59760e-06
 Reference value :  5.67150e-06
 Reference value :  5.75010e-06
 Reference value :  5.75011e-06
 Reference value :  5.75013e-06
 Reference value :  5.75017e-06
 Reference value :  5.75020e-06
 Reference value :  5.75020e-06
 Reference value :  5.75020e-06
 Reference value :  5.75021e-06
 Reference value :  5.75021e-06
 Reference value :  5.75022e-06
 Reference value :  5.75025e-06
 Reference value :  5.75030e-06
 Reference value :  5.75039e-06
 Reference value :  5.75059e-06
 Reference value :  5.75093e-06
 Reference value :  5.75154e-06
 Reference value :  5.75216e-06
 Reference value :  5.75294e-06
 Reference value :  5.75375e-06
 Reference value :  5.75481e-06
 Reference value :  5.75575e-06
 Reference value :  5.75683e-06
 Reference value :  5.75778e-06
 Reference value :  5.75878e-06
 Reference value :  5.75992e-06
 Reference value :  5.76120e-06
 Reference value :  5.76375e-06
 Reference value :  5.76659e-06
 Reference value :  5.77113e-06
 Reference value :  5.77731e-06
 Reference value :  5.78968e-06
 Reference value :  5.81441e-06
 Reference value :  5.86388e-06
 Reference value :  5.96281e-06
 Reference value :  6.00000e-06
 Reference value :  6.00001e-06
 Reference value :  6.00003e-06
 Reference value :  6.00007e-06
 Reference value :  6.00010e-06
 Reference value :  6.00010e-06
 Reference value :  6.00011e-06
 Reference value :  6.00013e-06
 Reference value :  6.00016e-06
 Reference value :  6.00023e-06
 Reference value :  6.00037e-06
 Reference value :  6.00055e-06
 Reference value :  6.00092e-06
 Reference value :  6.00160e-06
 Reference value :  6.00223e-06
 Reference value :  6.00291e-06
 Reference value :  6.00363e-06
 Reference value :  6.00439e-06
 Reference value :  6.00524e-06
 Reference value :  6.00615e-06
 Reference value :  6.00710e-06
 Reference value :  6.00813e-06
 Reference value :  6.00897e-06
 Reference value :  6.00997e-06
 Reference value :  6.01099e-06
 Reference value :  6.01228e-06
 Reference value :  6.01424e-06
 Reference value :  6.01725e-06
 Reference value :  6.02029e-06
 Reference value :  6.02269e-06
 Reference value :  6.02473e-06
 Reference value :  6.02668e-06
 Reference value :  6.02869e-06
 Reference value :  6.03060e-06
 Reference value :  6.03277e-06
 Reference value :  6.03501e-06
 Reference value :  6.03835e-06
 Reference value :  6.04267e-06
 Reference value :  6.05129e-06
 Reference value :  6.06185e-06
 Reference value :  6.07354e-06
 Reference value :  6.09360e-06
 Reference value :  6.11774e-06
 Reference value :  6.15236e-06
 Reference value :  6.22162e-06
 Reference value :  6.25010e-06
 Reference value :  6.25011e-06
 Reference value :  6.25013e-06
 Reference value :  6.25017e-06
 Reference value :  6.25020e-06
 Reference value :  6.25020e-06
 Reference value :  6.25020e-06
 Reference value :  6.25021e-06
 Reference value :  6.25021e-06
 Reference value :  6.25022e-06
 Reference value :  6.25025e-06
 Reference value :  6.25030e-06
 Reference value :  6.25040e-06
 Reference value :  6.25059e-06
 Reference value :  6.25094e-06
 Reference value :  6.25154e-06
 Reference value :  6.25218e-06
 Reference value :  6.25294e-06
 Reference value :  6.25377e-06
 Reference value :  6.25483e-06
 Reference value :  6.25578e-06
 Reference value :  6.25687e-06
 Reference value :  6.25797e-06
 Reference value :  6.25904e-06
 Reference value :  6.26082e-06
 Reference value :  6.26256e-06
 Reference value :  6.26537e-06
 Reference value :  6.26890e-06
 Reference value :  6.27419e-06
 Reference value :  6.28476e-06
 Reference value :  6.30306e-06
 Reference value :  6.33644e-06
 Reference value :  6.40318e-06
 Reference value :  6.50000e-06
 Reference value :  6.50001e-06
 Reference value :  6.50003e-06
 Reference value :  6.50007e-06
 Reference value :  6.50010e-06
 Reference value :  6.50010e-06
 Reference value :  6.50011e-06
 Reference value :  6.50013e-06
 Reference value :  6.50016e-06
 Reference value :  6.50023e-06
 Reference value :  6.50037e-06
 Reference value :  6.50056e-06
 Reference value :  6.50093e-06
 Reference value :  6.50161e-06
 Reference value :  6.50223e-06
 Reference value :  6.50291e-06
 Reference value :  6.50362e-06
 Reference value :  6.50438e-06
 Reference value :  6.50523e-06
 Reference value :  6.50615e-06
 Reference value :  6.50711e-06
 Reference value :  6.50847e-06
 Reference value :  6.50978e-06
 Reference value :  6.51142e-06
 Reference value :  6.51290e-06
 Reference value :  6.51445e-06
 Reference value :  6.51588e-06
 Reference value :  6.51747e-06
 Reference value :  6.51912e-06
 Reference value :  6.52102e-06
 Reference value :  6.52481e-06
 Reference value :  6.53048e-06
 Reference value :  6.54182e-06
 Reference value :  6.56451e-06
 Reference value :  6.60988e-06
 Reference value :  6.70062e-06
 Reference value :  6.75010e-06
 Reference value :  6.75011e-06
 Reference value :  6.75013e-06
 Reference value :  6.75017e-06
 Reference value :  6.75020e-06
 Reference value :  6.75020e-06
 Reference value :  6.75020e-06
 Reference value :  6.75021e-06
 Reference value :  6.75021e-06
 Reference value :  6.75022e-06
 Reference value :  6.75025e-06
 Reference value :  6.75030e-06
 Reference value :  6.75039e-06
 Reference value :  6.75059e-06
 Reference value :  6.75093e-06
 Reference value :  6.75154e-06
 Reference value :  6.75216e-06
 Reference value :  6.75294e-06
 Reference value :  6.75375e-06
 Reference value :  6.75481e-06
 Reference value :  6.75574e-06
 Reference value :  6.75681e-06
 Reference value :  6.75776e-06
 Reference value :  6.75875e-06
 Reference value :  6.75989e-06
 Reference value :  6.76116e-06
 Reference value :  6.76371e-06
 Reference value :  6.76651e-06
 Reference value :  6.77102e-06
 Reference value :  6.77708e-06
 Reference value :  6.78921e-06
 Reference value :  6.81346e-06
 Reference value :  6.86196e-06
 Reference value :  6.95896e-06
 Reference value :  7.00000e-06
 Reference value :  7.00001e-06
 Reference value :  7.00003e-06
 Reference value :  7.00007e-06
 Reference value :  7.00010e-06
 Reference value :  7.00010e-06
 Reference value :  7.00011e-06
 Reference value :  7.00013e-06
 Reference value :  7.00016e-06
 Reference value :  7.00023e-06
 Reference value :  7.00037e-06
 Reference value :  7.00055e-06
 Reference value :  7.00092e-06
 Reference value :  7.00160e-06
 Reference value :  7.00223e-06
 Reference value :  7.00291e-06
 Reference value :  7.00363e-06
 Reference value :  7.00439e-06
 Reference value :  7.00523e-06
 Reference value :  7.00615e-06
 Reference value :  7.00717e-06
 Reference value :  7.00818e-06
 Reference value :  7.00904e-06
 Reference value :  7.01006e-06
 Reference value :  7.01108e-06
 Reference value :  7.01240e-06
 Reference value :  7.01436e-06
 Reference value :  7.01723e-06
 Reference value :  7.02046e-06
 Reference value :  7.02288e-06
 Reference value :  7.02508e-06
 Reference value :  7.02725e-06
 Reference value :  7.02925e-06
 Reference value :  7.03145e-06
 Reference value :  7.03381e-06
 Reference value :  7.03638e-06
 Reference value :  7.03932e-06
 Reference value :  7.04387e-06
 Reference value :  7.04990e-06
 Reference value :  7.05651e-06
 Reference value :  7.06587e-06
 Reference value :  7.08274e-06
 Reference value :  7.10888e-06
 Reference value :  7.15695e-06
 Reference value :  7.24519e-06
 Reference value :  7.25010e-06
 Reference value :  7.25011e-06
 Reference value :  7.25013e-06
 Reference value :  7.25017e-06
 Reference value :  7.25020e-06
 Reference value :  7.25020e-06
 Reference value :  7.25020e-06
 Reference value :  7.25021e-06
 Reference value :  7.25021e-06
 Reference value :  7.25022e-06
 Reference value :  7.25025e-06
 Reference value :  7.25030e-06
 Reference value :  7.25040e-06
 Reference value :  7.25059e-06
 Reference value :  7.25095e-06
 Reference value :  7.25154e-06
 Reference value :  7.25219e-06
 Reference value :  7.25294e-06
 Reference value :  7.25377e-06
 Reference value :  7.25483e-06
 Reference value :  7.25574e-06
 Reference value :  7.25681e-06
 Reference value :  7.25794e-06
 Reference value :  7.25897e-06
 Reference value :  7.26079e-06
 Reference value :  7.26246e-06
 Reference value :  7.26529e-06
 Reference value :  7.26874e-06
 Reference value :  7.27397e-06
 Reference value :  7.28444e-06
 Reference value :  7.30293e-06
 Reference value :  7.33674e-06
 Reference value :  7.40438e-06
 Reference value :  7.50000e-06
 Reference value :  7.50001e-06
 Reference value :  7.50003e-06
 Reference value :  7.50007e-06
 Reference value :  7.50010e-06
 Reference value :  7.50010e-06
 Reference value :  7.50011e-06
 Reference value :  7.50013e-06
 Reference value :  7.50016e-06
 Reference value :  7.50023e-06
 Reference value :  7.50037e-06
 Reference value :  7.50056e-06
 Reference value :  7.50093e-06
 Reference value :  7.50152e-06
 Reference value :  7.50214e-06
 Reference value :  7.50284e-06
 Reference value :  7.50356e-06
 Reference value :  7.50432e-06
 Reference value :  7.50517e-06
 Reference value :  7.50609e-06
 Reference value :  7.50714e-06
 Reference value :  7.50847e-06
 Reference value :  7.50985e-06
 Reference value :  7.51155e-06
 Reference value :  7.51308e-06
 Reference value :  7.51466e-06
 Reference value :  7.51609e-06
 Reference value :  7.51771e-06
 Reference value :  7.51931e-06
 Reference value :  7.52118e-06
 Reference value :  7.52491e-06
 Reference value :  7.53120e-06
 Reference value :  7.54377e-06
 Reference value :  7.56892e-06
 Reference value :  7.61923e-06
 Reference value :  7.71983e-06
 Reference value :  7.75010e-06
 Reference value :  7.75011e-06
 Reference value :  7.75013e-06
 Reference value :  7.75017e-06
 Reference value :  7.75020e-06
 Reference value :  7.75020e-06
 Reference value :  7.75020e-06
 Reference value :  7.75021e-06
 Reference value :  7.75021e-06
 Reference value :  7.75022e-06
 Reference value :  7.75025e-06
 Reference value :  7.75030e-06
 Reference value :  7.75039e-06
 Reference value :  7.75059e-06
 Reference value :  7.75093e-06
 Reference value :  7.75154e-06
 Reference value :  7.75217e-06
 Reference value :  7.75294e-06
 Reference value :  7.75375e-06
 Reference value :  7.75482e-06
 Reference value :  7.75571e-06
 Reference value :  7.75675e-06
 Reference value :  7.75766e-06
 Reference value :  7.75864e-06
 Reference value :  7.75976e-06
 Reference value :  7.76102e-06
 Reference value :  7.76353e-06
 Reference value :  7.76625e-06
 Reference value :  7.77068e-06
 Reference value :  7.77645e-06
 Reference value :  7.78800e-06
 Reference value :  7.81108e-06
 Reference value :  7.85724e-06
 Reference value :  7.94956e-06
 Reference value :  8.00000e-06
 Reference value :  8.00001e-06
 Reference value :  8.00003e-06
 Reference value :  8.00007e-06
 Reference value :  8.00010e-06
 Reference value :  8.00010e-06
 Reference value :  8.00011e-06
 Reference value :  8.00013e-06
 Reference value :  8.00016e-06
 Reference value :  8.00023e-06
 Reference value :  8.00037e-06
 Reference value :  8.00055e-06
 Reference value :  8.00092e-06
 Reference value :  8.00151e-06
 Reference value :  8.00214e-06
 Reference value :  8.00284e-06
 Reference value :  8.00356e-06
 Reference value :  8.00433e-06
 Reference value :  8.00517e-06
 Reference value :  8.00609e-06
 Reference value :  8.00702e-06
 Reference value :  8.00802e-06
 Reference value :  8.00897e-06
 Reference value :  8.00995e-06
 Reference value :  8.01097e-06
 Reference value :  8.01231e-06
 Reference value :  8.01413e-06
 Reference value :  8.01685e-06
 Reference value :  8.02022e-06
 Reference value :  8.02271e-06
 Reference value :  8.02546e-06
 Reference value :  8.02813e-06
 Reference value :  8.03121e-06
 Reference value :  8.03586e-06
 Reference value :  8.04193e-06
 Reference value :  8.05211e-06
 Reference value :  8.06822e-06
 Reference value :  8.09503e-06
 Reference value :  8.14683e-06
 Reference value :  8.24909e-06
 Reference value :  8.25010e-06
 Reference value :  8.25011e-06
 Reference value :  8.25013e-06
 Reference value :  8.25017e-06
 Reference value :  8.25020e-06
 Reference value :  8.25020e-06
 Reference value :  8.25020e-06
 Reference value :  8.25021e-06
 Reference value :  8.25021e-06
 Reference value :  8.25022e-06
 Reference value :  8.25025e-06
 Reference value :  8.25030e-06
 Reference value :  8.25039e-06
 Reference value :  8.25059e-06
 Reference value :  8.25097e-06
 Reference value :  8.25154e-06
 Reference value :  8.25221e-06
 Reference value :  8.25295e-06
 Reference value :  8.25379e-06
 Reference value :  8.25485e-06
 Reference value :  8.25616e-06
 Reference value :  8.25753e-06
 Reference value :  8.25911e-06
 Reference value :  8.26083e-06
 Reference value :  8.26340e-06
 Reference value :  8.26637e-06
 Reference value :  8.27042e-06
 Reference value :  8.27625e-06
 Reference value :  8.28791e-06
 Reference value :  8.31124e-06
 Reference value :  8.35744e-06
 Reference value :  8.44984e-06
 Reference value :  8.50000e-06
 Reference value :  8.50001e-06
 Reference value :  8.50003e-06
 Reference value :  8.50007e-06
 Reference value :  8.50010e-06
 Reference value :  8.50010e-06
 Reference value :  8.50011e-06
 Reference value :  8.50013e-06
 Reference value :  8.50016e-06
 Reference value :  8.50023e-06
 Reference value :  8.50037e-06
 Reference value :  8.50064e-06
 Reference value :  8.50111e-06
 Reference value :  8.50187e-06
 Reference value :  8.50271e-06
 Reference value :  8.50338e-06
 Reference value :  8.50424e-06
 Reference value :  8.50514e-06
 Reference value :  8.50606e-06
 Reference value :  8.50708e-06
 Reference value :  8.50859e-06
 Reference value :  8.51017e-06
 Reference value :  8.51269e-06
 Reference value :  8.51434e-06
 Reference value :  8.51623e-06
 Reference value :  8.51914e-06
 Reference value :  8.52188e-06
 Reference value :  8.52525e-06
 Reference value :  8.53198e-06
 Reference value :  8.53283e-06
 Reference value :  8.53451e-06
 Reference value :  8.53633e-06
 Reference value :  8.53868e-06
 Reference value :  8.54126e-06
 Reference value :  8.54341e-06
 Reference value :  8.54567e-06
 Reference value :  8.54758e-06
 Reference value :  8.54957e-06
 Reference value :  8.55163e-06
 Reference value :  8.55321e-06
 Reference value :  8.55496e-06
 Reference value :  8.55689e-06
 Reference value :  8.55878e-06
 Reference value :  8.56094e-06
 Reference value :  8.56369e-06
 Reference value :  8.56684e-06
 Reference value :  8.57015e-06
 Reference value :  8.57523e-06
 Reference value :  8.58092e-06
 Reference value :  8.58753e-06
 Reference value :  8.59833e-06
 Reference value :  8.60851e-06
 Reference value :  8.62855e-06
 Reference value :  8.65867e-06
 Reference value :  8.71101e-06
 Reference value :  8.75010e-06
 Reference value :  8.75011e-06
 Reference value :  8.75013e-06
 Reference value :  8.75017e-06
 Reference value :  8.75020e-06
 Reference value :  8.75020e-06
 Reference value :  8.75020e-06
 Reference value :  8.75021e-06
 Reference value :  8.75021e-06
 Reference value :  8.75022e-06
 Reference value :  8.75025e-06
 Reference value :  8.75030e-06
 Reference value :  8.75039e-06
 Reference value :  8.75059e-06
 Reference value :  8.75098e-06
 Reference value :  8.75155e-06
 Reference value :  8.75223e-06
 Reference value :  8.75299e-06
 Reference value :  8.75380e-06
 Reference value :  8.75492e-06
 Reference value :  8.75587e-06
 Reference value :  8.75695e-06
 Reference value :  8.75814e-06
 Reference value :  8.75921e-06
 Reference value :  8.76101e-06
 Reference value :  8.76292e-06
 Reference value :  8.76566e-06
 Reference value :  8.76946e-06
 Reference value :  8.77503e-06
 Reference value :  8.78616e-06
 Reference value :  8.80400e-06
 Reference value :  8.83656e-06
 Reference value :  8.89601e-06
 Reference value :  8.95150e-06
 Reference value :  9.00000e-06
No. of Data Rows : 1419
ngspice-44 done
