
Note: Compatibility modes selected: hs a


Circuit: ** sch_path: /home/audrey/cace/sar-adc-using-sky130-pdk/runs/run_2025-08-29_19-31-03/parameters/power/run_1/power_consumption.sch

option SCALE: Scale is set to 1e-06 for instance and model parameters
option SCALE: Scale is set to 1e-06 for instance and model parameters
option SCALE: Scale is set to 1e-06 for instance and model parameters
option SCALE: Scale is set to 1e-06 for instance and model parameters
Doing analysis at TEMP = 27.000000 and TNOM = 27.000000

Using KLU as Direct Linear Solver
Operating point simulation skipped by 'uic',
  now using transient initial conditions.
 Reference value :  5.00000e-12
 Reference value :  5.13139e-12
 Reference value :  5.39417e-12
 Reference value :  5.91973e-12
 Reference value :  6.97085e-12
 Reference value :  8.82366e-12
 Reference value :  1.18438e-11
 Reference value :  1.73163e-11
 Reference value :  2.79871e-11
 Reference value :  4.12727e-11
 Reference value :  6.58456e-11
 Reference value :  9.51368e-11
 Reference value :  1.46954e-10
 Reference value :  2.07811e-10
 Reference value :  3.29525e-10
 Reference value :  4.65915e-10
 Reference value :  5.00000e-10
 Reference value :  5.04296e-10
 Reference value :  5.12887e-10
 Reference value :  5.30069e-10
 Reference value :  5.64435e-10
 Reference value :  6.33165e-10
 Reference value :  7.70625e-10
 Reference value :  1.04555e-09
 Reference value :  1.59539e-09
 Reference value :  2.69507e-09
 Reference value :  4.60621e-09
 Reference value :  6.58300e-09
 Reference value :  1.05366e-08
 Reference value :  1.73627e-08
 Reference value :  2.56696e-08
 Reference value :  3.87454e-08
 Reference value :  5.49810e-08
 Reference value :  8.54753e-08
 Reference value :  1.27454e-07
 Reference value :  2.11411e-07
 Reference value :  3.79326e-07
 Reference value :  5.00000e-07
 Reference value :  5.33583e-07
 Reference value :  6.00749e-07
 Reference value :  7.35081e-07
 Reference value :  1.00050e-06
 Reference value :  1.00055e-06
 Reference value :  1.00065e-06
 Reference value :  1.00085e-06
 Reference value :  1.00100e-06
 Reference value :  1.00103e-06
 Reference value :  1.00110e-06
 Reference value :  1.00124e-06
 Reference value :  1.00151e-06
 Reference value :  1.00198e-06
 Reference value :  1.00254e-06
 Reference value :  1.00338e-06
 Reference value :  1.00466e-06
 Reference value :  1.00693e-06
 Reference value :  1.01006e-06
 Reference value :  1.01633e-06
 Reference value :  1.02552e-06
 Reference value :  1.03421e-06
 Reference value :  1.04382e-06
 Reference value :  1.05504e-06
 Reference value :  1.06771e-06
 Reference value :  1.08655e-06
 Reference value :  1.10489e-06
 Reference value :  1.12684e-06
 Reference value :  1.14673e-06
 Reference value :  1.16187e-06
 Reference value :  1.17779e-06
 Reference value :  1.18920e-06
 Reference value :  1.20085e-06
 Reference value :  1.20888e-06
 Reference value :  1.21705e-06
 Reference value :  1.22746e-06
 Reference value :  1.23559e-06
 Reference value :  1.24425e-06
 Reference value :  1.25081e-06
 Reference value :  1.25763e-06
 Reference value :  1.26382e-06
 Reference value :  1.27003e-06
 Reference value :  1.27662e-06
 Reference value :  1.28496e-06
 Reference value :  1.29290e-06
 Reference value :  1.30700e-06
 Reference value :  1.32319e-06
 Reference value :  1.33949e-06
 Reference value :  1.35688e-06
 Reference value :  1.36929e-06
 Reference value :  1.38153e-06
 Reference value :  1.39158e-06
 Reference value :  1.40234e-06
 Reference value :  1.41020e-06
 Reference value :  1.42169e-06
 Reference value :  1.43670e-06
 Reference value :  1.46673e-06
 Reference value :  1.51060e-06
 Reference value :  1.59384e-06
 Reference value :  1.73447e-06
 Reference value :  1.73696e-06
 Reference value :  1.74195e-06
 Reference value :  1.75192e-06
 Reference value :  1.77187e-06
 Reference value :  1.81177e-06
 Reference value :  1.87113e-06
 Reference value :  1.92079e-06
 Reference value :  1.97217e-06
 Reference value :  2.00000e-06
 Reference value :  2.00005e-06
 Reference value :  2.00015e-06
 Reference value :  2.00035e-06
 Reference value :  2.00050e-06
 Reference value :  2.00051e-06
 Reference value :  2.00053e-06
 Reference value :  2.00056e-06
 Reference value :  2.00064e-06
 Reference value :  2.00079e-06
 Reference value :  2.00108e-06
 Reference value :  2.00167e-06
 Reference value :  2.00285e-06
 Reference value :  2.00414e-06
 Reference value :  2.00614e-06
 Reference value :  2.00932e-06
 Reference value :  2.01337e-06
 Reference value :  2.01763e-06
 Reference value :  2.02413e-06
 Reference value :  2.03585e-06
 Reference value :  2.05486e-06
 Reference value :  2.09288e-06
 Reference value :  2.12973e-06
 Reference value :  2.16454e-06
 Reference value :  2.20951e-06
 Reference value :  2.25642e-06
 Reference value :  2.30998e-06
 Reference value :  2.39303e-06
 Reference value :  2.49494e-06
 Reference value :  2.65459e-06
 Reference value :  2.89416e-06
 Reference value :  3.00050e-06
 Reference value :  3.00055e-06
 Reference value :  3.00065e-06
 Reference value :  3.00085e-06
 Reference value :  3.00100e-06
 Reference value :  3.00103e-06
 Reference value :  3.00109e-06
 Reference value :  3.00120e-06
 Reference value :  3.00143e-06
 Reference value :  3.00182e-06
 Reference value :  3.00218e-06
 Reference value :  3.00277e-06
 Reference value :  3.00354e-06
 Reference value :  3.00508e-06
 Reference value :  3.00816e-06
 Reference value :  3.01433e-06
 Reference value :  3.02667e-06
 Reference value :  3.05135e-06
 Reference value :  3.08096e-06
 Reference value :  3.12833e-06
 Reference value :  3.18174e-06
 Reference value :  3.26627e-06
 Reference value :  3.38161e-06
 Reference value :  3.61230e-06
 Reference value :  3.61716e-06
 Reference value :  3.62688e-06
 Reference value :  3.64633e-06
 Reference value :  3.68521e-06
 Reference value :  3.76299e-06
 Reference value :  3.85566e-06
 Reference value :  3.92979e-06
 Reference value :  4.00000e-06
 Reference value :  4.00005e-06
 Reference value :  4.00015e-06
 Reference value :  4.00035e-06
 Reference value :  4.00050e-06
 Reference value :  4.00051e-06
 Reference value :  4.00053e-06
 Reference value :  4.00056e-06
 Reference value :  4.00063e-06
 Reference value :  4.00078e-06
 Reference value :  4.00106e-06
 Reference value :  4.00163e-06
 Reference value :  4.00277e-06
 Reference value :  4.00408e-06
 Reference value :  4.00607e-06
 Reference value :  4.00915e-06
 Reference value :  4.01278e-06
 Reference value :  4.01767e-06
 Reference value :  4.02311e-06
 Reference value :  4.03399e-06
 Reference value :  4.05575e-06
 Reference value :  4.09927e-06
 Reference value :  4.17187e-06
 Reference value :  4.23800e-06
 Reference value :  4.30353e-06
 Reference value :  4.31991e-06
 Reference value :  4.35268e-06
 Reference value :  4.41821e-06
 Reference value :  4.47080e-06
 Reference value :  4.51109e-06
 Reference value :  4.54866e-06
 Reference value :  4.58742e-06
 Reference value :  4.64278e-06
 Reference value :  4.70159e-06
 Reference value :  4.78244e-06
 Reference value :  4.88462e-06
 Reference value :  5.00050e-06
 Reference value :  5.00055e-06
 Reference value :  5.00065e-06
 Reference value :  5.00085e-06
 Reference value :  5.00100e-06
 Reference value :  5.00103e-06
 Reference value :  5.00109e-06
 Reference value :  5.00122e-06
 Reference value :  5.00146e-06
 Reference value :  5.00181e-06
 Reference value :  5.00218e-06
 Reference value :  5.00276e-06
 Reference value :  5.00359e-06
 Reference value :  5.00526e-06
 Reference value :  5.00859e-06
 Reference value :  5.01526e-06
 Reference value :  5.02860e-06
 Reference value :  5.05288e-06
 Reference value :  5.08293e-06
 Reference value :  5.12789e-06
 Reference value :  5.17515e-06
 Reference value :  5.24805e-06
 Reference value :  5.37740e-06
 Reference value :  5.56275e-06
 Reference value :  5.60009e-06
 Reference value :  5.67478e-06
 Reference value :  5.82416e-06
 Reference value :  5.97307e-06
 Reference value :  6.00000e-06
 Reference value :  6.00005e-06
 Reference value :  6.00015e-06
 Reference value :  6.00035e-06
 Reference value :  6.00050e-06
 Reference value :  6.00051e-06
 Reference value :  6.00053e-06
 Reference value :  6.00058e-06
 Reference value :  6.00067e-06
 Reference value :  6.00086e-06
 Reference value :  6.00123e-06
 Reference value :  6.00197e-06
 Reference value :  6.00345e-06
 Reference value :  6.00546e-06
 Reference value :  6.00811e-06
 Reference value :  6.01231e-06
 Reference value :  6.01742e-06
 Reference value :  6.02589e-06
 Reference value :  6.03442e-06
 Reference value :  6.04749e-06
 Reference value :  6.07363e-06
 Reference value :  6.11408e-06
 Reference value :  6.19497e-06
 Reference value :  6.31471e-06
 Reference value :  6.55421e-06
 Reference value :  6.89417e-06
 Reference value :  7.00050e-06
 Reference value :  7.00055e-06
 Reference value :  7.00065e-06
 Reference value :  7.00085e-06
 Reference value :  7.00100e-06
 Reference value :  7.00103e-06
 Reference value :  7.00109e-06
 Reference value :  7.00121e-06
 Reference value :  7.00144e-06
 Reference value :  7.00176e-06
 Reference value :  7.00218e-06
 Reference value :  7.00277e-06
 Reference value :  7.00385e-06
 Reference value :  7.00601e-06
 Reference value :  7.01033e-06
 Reference value :  7.01897e-06
 Reference value :  7.03624e-06
 Reference value :  7.07080e-06
 Reference value :  7.13991e-06
 Reference value :  7.24681e-06
 Reference value :  7.39120e-06
 Reference value :  7.57259e-06
 Reference value :  7.80223e-06
 Reference value :  8.00000e-06
 Reference value :  8.00005e-06
 Reference value :  8.00015e-06
 Reference value :  8.00035e-06
 Reference value :  8.00050e-06
 Reference value :  8.00051e-06
 Reference value :  8.00054e-06
 Reference value :  8.00059e-06
 Reference value :  8.00069e-06
 Reference value :  8.00089e-06
 Reference value :  8.00129e-06
 Reference value :  8.00209e-06
 Reference value :  8.00370e-06
 Reference value :  8.00692e-06
 Reference value :  8.01015e-06
 Reference value :  8.01662e-06
 Reference value :  8.02321e-06
 Reference value :  8.03494e-06
 Reference value :  8.05067e-06
 Reference value :  8.06626e-06
 Reference value :  8.09745e-06
 Reference value :  8.15982e-06
 Reference value :  8.28456e-06
 Reference value :  8.49697e-06
 Reference value :  8.87091e-06
 Reference value :  9.00050e-06
 Reference value :  9.00055e-06
 Reference value :  9.00065e-06
 Reference value :  9.00085e-06
 Reference value :  9.00100e-06
 Reference value :  9.00103e-06
 Reference value :  9.00109e-06
 Reference value :  9.00121e-06
 Reference value :  9.00144e-06
 Reference value :  9.00175e-06
 Reference value :  9.00218e-06
 Reference value :  9.00277e-06
 Reference value :  9.00386e-06
 Reference value :  9.00605e-06
 Reference value :  9.01042e-06
 Reference value :  9.01917e-06
 Reference value :  9.03667e-06
 Reference value :  9.06795e-06
 Reference value :  9.10292e-06
 Reference value :  9.12917e-06
 Reference value :  9.15984e-06
 Reference value :  9.18709e-06
 Reference value :  9.21665e-06
 Reference value :  9.25777e-06
 Reference value :  9.30099e-06
 Reference value :  9.37576e-06
 Reference value :  9.47229e-06
 Reference value :  9.62700e-06
 Reference value :  9.86129e-06
 Reference value :  1.00000e-05
 Reference value :  1.00000e-05
 Reference value :  1.00001e-05
 Reference value :  1.00003e-05
 Reference value :  1.00005e-05
 Reference value :  1.00005e-05
 Reference value :  1.00005e-05
 Reference value :  1.00006e-05
 Reference value :  1.00006e-05
 Reference value :  1.00008e-05
 Reference value :  1.00011e-05
 Reference value :  1.00017e-05
 Reference value :  1.00030e-05
 Reference value :  1.00054e-05
 Reference value :  1.00080e-05
 Reference value :  1.00126e-05
 Reference value :  1.00180e-05
 Reference value :  1.00263e-05
 Reference value :  1.00374e-05
 Reference value :  1.00491e-05
 Reference value :  1.00724e-05
 Reference value :  1.01190e-05
 Reference value :  1.02097e-05
 Reference value :  1.03237e-05
 Reference value :  1.05127e-05
 Reference value :  1.07661e-05
 Reference value :  1.10005e-05
 Reference value :  1.10005e-05
 Reference value :  1.10006e-05
 Reference value :  1.10008e-05
 Reference value :  1.10010e-05
 Reference value :  1.10010e-05
 Reference value :  1.10011e-05
 Reference value :  1.10012e-05
 Reference value :  1.10015e-05
 Reference value :  1.10018e-05
 Reference value :  1.10022e-05
 Reference value :  1.10028e-05
 Reference value :  1.10039e-05
 Reference value :  1.10062e-05
 Reference value :  1.10107e-05
 Reference value :  1.10197e-05
 Reference value :  1.10377e-05
 Reference value :  1.10738e-05
 Reference value :  1.11299e-05
 Reference value :  1.12007e-05
 Reference value :  1.13043e-05
 Reference value :  1.14638e-05
 Reference value :  1.16877e-05
 Reference value :  1.19502e-05
 Reference value :  1.20000e-05
 Reference value :  1.20000e-05
 Reference value :  1.20001e-05
 Reference value :  1.20003e-05
 Reference value :  1.20005e-05
 Reference value :  1.20005e-05
 Reference value :  1.20005e-05
 Reference value :  1.20006e-05
 Reference value :  1.20007e-05
 Reference value :  1.20009e-05
 Reference value :  1.20013e-05
 Reference value :  1.20021e-05
 Reference value :  1.20037e-05
 Reference value :  1.20066e-05
 Reference value :  1.20096e-05
 Reference value :  1.20152e-05
 Reference value :  1.20212e-05
 Reference value :  1.20317e-05
 Reference value :  1.20426e-05
 Reference value :  1.20584e-05
 Reference value :  1.20900e-05
 Reference value :  1.21414e-05
 Reference value :  1.22441e-05
 Reference value :  1.23853e-05
 Reference value :  1.25495e-05
 Reference value :  1.27666e-05
 Reference value :  1.30005e-05
 Reference value :  1.30006e-05
 Reference value :  1.30007e-05
 Reference value :  1.30009e-05
 Reference value :  1.30010e-05
 Reference value :  1.30010e-05
 Reference value :  1.30011e-05
 Reference value :  1.30012e-05
 Reference value :  1.30014e-05
 Reference value :  1.30018e-05
 Reference value :  1.30022e-05
 Reference value :  1.30028e-05
 Reference value :  1.30038e-05
 Reference value :  1.30060e-05
 Reference value :  1.30103e-05
 Reference value :  1.30189e-05
 Reference value :  1.30360e-05
 Reference value :  1.30703e-05
 Reference value :  1.31390e-05
 Reference value :  1.32452e-05
 Reference value :  1.33411e-05
 Reference value :  1.34104e-05
 Reference value :  1.34762e-05
 Reference value :  1.35675e-05
 Reference value :  1.36554e-05
 Reference value :  1.37843e-05
 Reference value :  1.39330e-05
 Reference value :  1.40000e-05
 Reference value :  1.40000e-05
 Reference value :  1.40002e-05
 Reference value :  1.40004e-05
 Reference value :  1.40005e-05
 Reference value :  1.40005e-05
 Reference value :  1.40005e-05
 Reference value :  1.40006e-05
 Reference value :  1.40007e-05
 Reference value :  1.40009e-05
 Reference value :  1.40013e-05
 Reference value :  1.40021e-05
 Reference value :  1.40037e-05
 Reference value :  1.40069e-05
 Reference value :  1.40103e-05
 Reference value :  1.40163e-05
 Reference value :  1.40231e-05
 Reference value :  1.40340e-05
 Reference value :  1.40473e-05
 Reference value :  1.40632e-05
 Reference value :  1.40950e-05
 Reference value :  1.41567e-05
 Reference value :  1.42655e-05
 Reference value :  1.44245e-05
 Reference value :  1.46130e-05
 Reference value :  1.49096e-05
 Reference value :  1.50005e-05
 Reference value :  1.50005e-05
 Reference value :  1.50007e-05
 Reference value :  1.50009e-05
 Reference value :  1.50010e-05
 Reference value :  1.50010e-05
 Reference value :  1.50011e-05
 Reference value :  1.50012e-05
 Reference value :  1.50014e-05
 Reference value :  1.50018e-05
 Reference value :  1.50022e-05
 Reference value :  1.50028e-05
 Reference value :  1.50039e-05
 Reference value :  1.50060e-05
 Reference value :  1.50104e-05
 Reference value :  1.50191e-05
 Reference value :  1.50366e-05
 Reference value :  1.50715e-05
 Reference value :  1.51414e-05
 Reference value :  1.52442e-05
 Reference value :  1.53537e-05
 Reference value :  1.54354e-05
 Reference value :  1.55144e-05
 Reference value :  1.55917e-05
 Reference value :  1.56650e-05
 Reference value :  1.57618e-05
 Reference value :  1.58616e-05
 Reference value :  1.59908e-05
 Reference value :  1.60000e-05
 Reference value :  1.60000e-05
 Reference value :  1.60001e-05
 Reference value :  1.60004e-05
 Reference value :  1.60005e-05
 Reference value :  1.60005e-05
 Reference value :  1.60005e-05
 Reference value :  1.60006e-05
 Reference value :  1.60007e-05
 Reference value :  1.60008e-05
 Reference value :  1.60012e-05
 Reference value :  1.60018e-05
 Reference value :  1.60032e-05
 Reference value :  1.60059e-05
 Reference value :  1.60113e-05
 Reference value :  1.60222e-05
 Reference value :  1.60438e-05
 Reference value :  1.60756e-05
 Reference value :  1.61096e-05
 Reference value :  1.61776e-05
 Reference value :  1.62954e-05
 Reference value :  1.64220e-05
 Reference value :  1.65585e-05
 Reference value :  1.68314e-05
 Reference value :  1.70005e-05
 Reference value :  1.70006e-05
 Reference value :  1.70007e-05
 Reference value :  1.70009e-05
 Reference value :  1.70010e-05
 Reference value :  1.70010e-05
 Reference value :  1.70011e-05
 Reference value :  1.70012e-05
 Reference value :  1.70014e-05
 Reference value :  1.70018e-05
 Reference value :  1.70022e-05
 Reference value :  1.70028e-05
 Reference value :  1.70038e-05
 Reference value :  1.70060e-05
 Reference value :  1.70102e-05
 Reference value :  1.70187e-05
 Reference value :  1.70357e-05
 Reference value :  1.70697e-05
 Reference value :  1.71377e-05
 Reference value :  1.72436e-05
 Reference value :  1.73461e-05
 Reference value :  1.74231e-05
 Reference value :  1.75058e-05
 Reference value :  1.75970e-05
 Reference value :  1.76831e-05
 Reference value :  1.78135e-05
 Reference value :  1.79511e-05
 Reference value :  1.80000e-05
 Reference value :  1.80001e-05
 Reference value :  1.80002e-05
 Reference value :  1.80004e-05
 Reference value :  1.80005e-05
 Reference value :  1.80005e-05
 Reference value :  1.80005e-05
 Reference value :  1.80006e-05
 Reference value :  1.80007e-05
 Reference value :  1.80008e-05
 Reference value :  1.80012e-05
 Reference value :  1.80018e-05
 Reference value :  1.80032e-05
 Reference value :  1.80059e-05
 Reference value :  1.80113e-05
 Reference value :  1.80222e-05
 Reference value :  1.80439e-05
 Reference value :  1.80771e-05
 Reference value :  1.81114e-05
 Reference value :  1.81798e-05
 Reference value :  1.82977e-05
 Reference value :  1.84206e-05
 Reference value :  1.85680e-05
 Reference value :  1.87913e-05
 Reference value :  1.90005e-05
 Reference value :  1.90006e-05
 Reference value :  1.90007e-05
 Reference value :  1.90009e-05
 Reference value :  1.90010e-05
 Reference value :  1.90010e-05
 Reference value :  1.90011e-05
 Reference value :  1.90012e-05
 Reference value :  1.90014e-05
 Reference value :  1.90018e-05
 Reference value :  1.90022e-05
 Reference value :  1.90028e-05
 Reference value :  1.90038e-05
 Reference value :  1.90060e-05
 Reference value :  1.90102e-05
 Reference value :  1.90187e-05
 Reference value :  1.90357e-05
 Reference value :  1.90697e-05
 Reference value :  1.91377e-05
 Reference value :  1.92507e-05
 Reference value :  1.93452e-05
 Reference value :  1.94462e-05
 Reference value :  1.96108e-05
 Reference value :  1.98207e-05
 Reference value :  2.00000e-05
 Reference value :  2.00001e-05
 Reference value :  2.00002e-05
 Reference value :  2.00004e-05
 Reference value :  2.00005e-05
 Reference value :  2.00005e-05
 Reference value :  2.00005e-05
 Reference value :  2.00006e-05
 Reference value :  2.00007e-05
 Reference value :  2.00008e-05
 Reference value :  2.00012e-05
 Reference value :  2.00018e-05
 Reference value :  2.00032e-05
 Reference value :  2.00059e-05
 Reference value :  2.00113e-05
 Reference value :  2.00222e-05
 Reference value :  2.00439e-05
 Reference value :  2.00765e-05
 Reference value :  2.01107e-05
 Reference value :  2.01792e-05
 Reference value :  2.02973e-05
 Reference value :  2.04214e-05
 Reference value :  2.05607e-05
 Reference value :  2.07977e-05
 Reference value :  2.10005e-05
 Reference value :  2.10005e-05
 Reference value :  2.10006e-05
 Reference value :  2.10008e-05
 Reference value :  2.10010e-05
 Reference value :  2.10010e-05
 Reference value :  2.10011e-05
 Reference value :  2.10012e-05
 Reference value :  2.10014e-05
 Reference value :  2.10018e-05
 Reference value :  2.10022e-05
 Reference value :  2.10028e-05
 Reference value :  2.10038e-05
 Reference value :  2.10060e-05
 Reference value :  2.10102e-05
 Reference value :  2.10187e-05
 Reference value :  2.10357e-05
 Reference value :  2.10697e-05
 Reference value :  2.11378e-05
 Reference value :  2.12501e-05
 Reference value :  2.14061e-05
 Reference value :  2.16574e-05
 Reference value :  2.20000e-05
 Reference value :  2.20000e-05
 Reference value :  2.20001e-05
 Reference value :  2.20004e-05
 Reference value :  2.20005e-05
 Reference value :  2.20005e-05
 Reference value :  2.20005e-05
 Reference value :  2.20006e-05
 Reference value :  2.20007e-05
 Reference value :  2.20008e-05
 Reference value :  2.20012e-05
 Reference value :  2.20018e-05
 Reference value :  2.20032e-05
 Reference value :  2.20059e-05
 Reference value :  2.20113e-05
 Reference value :  2.20222e-05
 Reference value :  2.20439e-05
 Reference value :  2.20766e-05
 Reference value :  2.21108e-05
 Reference value :  2.21792e-05
 Reference value :  2.22973e-05
 Reference value :  2.24214e-05
 Reference value :  2.25612e-05
 Reference value :  2.27972e-05
 Reference value :  2.30005e-05
 Reference value :  2.30005e-05
 Reference value :  2.30006e-05
 Reference value :  2.30008e-05
 Reference value :  2.30010e-05
 Reference value :  2.30010e-05
 Reference value :  2.30011e-05
 Reference value :  2.30012e-05
 Reference value :  2.30014e-05
 Reference value :  2.30018e-05
 Reference value :  2.30022e-05
 Reference value :  2.30028e-05
 Reference value :  2.30038e-05
 Reference value :  2.30060e-05
 Reference value :  2.30102e-05
 Reference value :  2.30187e-05
 Reference value :  2.30357e-05
 Reference value :  2.30697e-05
 Reference value :  2.31378e-05
 Reference value :  2.32514e-05
 Reference value :  2.34083e-05
 Reference value :  2.36623e-05
 Reference value :  2.40000e-05
 Reference value :  2.40001e-05
 Reference value :  2.40002e-05
 Reference value :  2.40004e-05
 Reference value :  2.40005e-05
 Reference value :  2.40005e-05
 Reference value :  2.40005e-05
 Reference value :  2.40006e-05
 Reference value :  2.40007e-05
 Reference value :  2.40008e-05
 Reference value :  2.40012e-05
 Reference value :  2.40018e-05
 Reference value :  2.40032e-05
 Reference value :  2.40059e-05
 Reference value :  2.40113e-05
 Reference value :  2.40222e-05
 Reference value :  2.40439e-05
 Reference value :  2.40766e-05
 Reference value :  2.41108e-05
 Reference value :  2.41792e-05
 Reference value :  2.42974e-05
 Reference value :  2.44214e-05
 Reference value :  2.45617e-05
 Reference value :  2.47968e-05
 Reference value :  2.50005e-05
 Reference value :  2.50005e-05
 Reference value :  2.50006e-05
 Reference value :  2.50008e-05
 Reference value :  2.50010e-05
 Reference value :  2.50010e-05
 Reference value :  2.50011e-05
 Reference value :  2.50012e-05
 Reference value :  2.50014e-05
 Reference value :  2.50018e-05
 Reference value :  2.50022e-05
 Reference value :  2.50028e-05
 Reference value :  2.50038e-05
 Reference value :  2.50060e-05
 Reference value :  2.50102e-05
 Reference value :  2.50187e-05
 Reference value :  2.50357e-05
 Reference value :  2.50698e-05
 Reference value :  2.51378e-05
 Reference value :  2.52521e-05
 Reference value :  2.54096e-05
 Reference value :  2.56653e-05
 Reference value :  2.60000e-05
 Reference value :  2.60001e-05
 Reference value :  2.60002e-05
 Reference value :  2.60004e-05
 Reference value :  2.60005e-05
 Reference value :  2.60005e-05
 Reference value :  2.60005e-05
 Reference value :  2.60006e-05
 Reference value :  2.60007e-05
 Reference value :  2.60008e-05
 Reference value :  2.60012e-05
 Reference value :  2.60018e-05
 Reference value :  2.60032e-05
 Reference value :  2.60059e-05
 Reference value :  2.60113e-05
 Reference value :  2.60222e-05
 Reference value :  2.60439e-05
 Reference value :  2.60767e-05
 Reference value :  2.61109e-05
 Reference value :  2.61793e-05
 Reference value :  2.62974e-05
 Reference value :  2.64214e-05
 Reference value :  2.65619e-05
 Reference value :  2.67965e-05
 Reference value :  2.70005e-05
 Reference value :  2.70006e-05
 Reference value :  2.70007e-05
 Reference value :  2.70009e-05
 Reference value :  2.70010e-05
 Reference value :  2.70010e-05
 Reference value :  2.70011e-05
 Reference value :  2.70012e-05
 Reference value :  2.70014e-05
 Reference value :  2.70018e-05
 Reference value :  2.70022e-05
 Reference value :  2.70028e-05
 Reference value :  2.70038e-05
 Reference value :  2.70060e-05
 Reference value :  2.70102e-05
 Reference value :  2.70187e-05
 Reference value :  2.70357e-05
 Reference value :  2.70698e-05
 Reference value :  2.71378e-05
 Reference value :  2.72526e-05
 Reference value :  2.74104e-05
 Reference value :  2.76671e-05
 Reference value :  2.80000e-05
 Reference value :  2.80000e-05
 Reference value :  2.80001e-05
 Reference value :  2.80004e-05
 Reference value :  2.80005e-05
 Reference value :  2.80005e-05
 Reference value :  2.80005e-05
 Reference value :  2.80006e-05
 Reference value :  2.80007e-05
 Reference value :  2.80008e-05
 Reference value :  2.80012e-05
 Reference value :  2.80018e-05
 Reference value :  2.80032e-05
 Reference value :  2.80059e-05
 Reference value :  2.80113e-05
 Reference value :  2.80222e-05
 Reference value :  2.80439e-05
 Reference value :  2.80772e-05
 Reference value :  2.81112e-05
 Reference value :  2.81793e-05
 Reference value :  2.82978e-05
 Reference value :  2.84217e-05
 Reference value :  2.85624e-05
 Reference value :  2.87969e-05
 Reference value :  2.90005e-05
 Reference value :  2.90006e-05
 Reference value :  2.90007e-05
 Reference value :  2.90009e-05
 Reference value :  2.90010e-05
 Reference value :  2.90010e-05
 Reference value :  2.90011e-05
 Reference value :  2.90012e-05
 Reference value :  2.90014e-05
 Reference value :  2.90018e-05
 Reference value :  2.90022e-05
 Reference value :  2.90028e-05
 Reference value :  2.90038e-05
 Reference value :  2.90060e-05
 Reference value :  2.90102e-05
 Reference value :  2.90187e-05
 Reference value :  2.90357e-05
 Reference value :  2.90698e-05
 Reference value :  2.91378e-05
 Reference value :  2.92530e-05
 Reference value :  2.94110e-05
 Reference value :  2.96683e-05
 Reference value :  3.00000e-05
 Reference value :  3.00001e-05
 Reference value :  3.00002e-05
 Reference value :  3.00004e-05
 Reference value :  3.00005e-05
 Reference value :  3.00005e-05
 Reference value :  3.00005e-05
 Reference value :  3.00006e-05
 Reference value :  3.00007e-05
 Reference value :  3.00008e-05
 Reference value :  3.00012e-05
 Reference value :  3.00018e-05
 Reference value :  3.00032e-05
 Reference value :  3.00059e-05
 Reference value :  3.00113e-05
 Reference value :  3.00222e-05
 Reference value :  3.00439e-05
 Reference value :  3.00776e-05
 Reference value :  3.01115e-05
 Reference value :  3.01793e-05
 Reference value :  3.02981e-05
 Reference value :  3.04221e-05
 Reference value :  3.05628e-05
 Reference value :  3.07974e-05
 Reference value :  3.10005e-05
 Reference value :  3.10005e-05
 Reference value :  3.10006e-05
 Reference value :  3.10008e-05
 Reference value :  3.10010e-05
 Reference value :  3.10010e-05
 Reference value :  3.10011e-05
 Reference value :  3.10012e-05
 Reference value :  3.10014e-05
 Reference value :  3.10018e-05
 Reference value :  3.10022e-05
 Reference value :  3.10028e-05
 Reference value :  3.10038e-05
 Reference value :  3.10060e-05
 Reference value :  3.10102e-05
 Reference value :  3.10187e-05
 Reference value :  3.10357e-05
 Reference value :  3.10698e-05
 Reference value :  3.11378e-05
 Reference value :  3.12532e-05
 Reference value :  3.14114e-05
 Reference value :  3.16691e-05
 Reference value :  3.20000e-05
 Reference value :  3.20000e-05
 Reference value :  3.20001e-05
 Reference value :  3.20003e-05
 Reference value :  3.20005e-05
 Reference value :  3.20005e-05
 Reference value :  3.20005e-05
 Reference value :  3.20006e-05
 Reference value :  3.20007e-05
 Reference value :  3.20008e-05
 Reference value :  3.20012e-05
 Reference value :  3.20018e-05
 Reference value :  3.20032e-05
 Reference value :  3.20059e-05
 Reference value :  3.20113e-05
 Reference value :  3.20222e-05
 Reference value :  3.20439e-05
 Reference value :  3.20779e-05
 Reference value :  3.21117e-05
 Reference value :  3.21793e-05
 Reference value :  3.22984e-05
 Reference value :  3.24223e-05
 Reference value :  3.25630e-05
 Reference value :  3.27977e-05
 Reference value :  3.30005e-05
 Reference value :  3.30006e-05
 Reference value :  3.30007e-05
 Reference value :  3.30009e-05
 Reference value :  3.30010e-05
 Reference value :  3.30010e-05
 Reference value :  3.30011e-05
 Reference value :  3.30012e-05
 Reference value :  3.30014e-05
 Reference value :  3.30018e-05
 Reference value :  3.30022e-05
 Reference value :  3.30028e-05
 Reference value :  3.30038e-05
 Reference value :  3.30060e-05
 Reference value :  3.30102e-05
 Reference value :  3.30187e-05
 Reference value :  3.30357e-05
 Reference value :  3.30698e-05
 Reference value :  3.31378e-05
 Reference value :  3.32533e-05
 Reference value :  3.34116e-05
 Reference value :  3.36696e-05
 Reference value :  3.40000e-05
No. of Data Rows : 913
ngspice-44 done
