
Note: Compatibility modes selected: hs a


Circuit: ** sch_path: /home/ece/cace/sar-adc-using-sky130-pdk/runs/run_2025-09-10_19-58-20/parameters/sampling_rate/run_35/sampling_rate.sch

option SCALE: Scale is set to 1e-06 for instance and model parameters
option SCALE: Scale is set to 1e-06 for instance and model parameters
option SCALE: Scale is set to 1e-06 for instance and model parameters
option SCALE: Scale is set to 1e-06 for instance and model parameters
Doing analysis at TEMP = 27.000000 and TNOM = 27.000000

Using KLU as Direct Linear Solver
Operating point simulation skipped by 'uic',
  now using transient initial conditions.
 Reference value :  1.00000e-12
 Reference value :  1.08400e-12
 Reference value :  2.27013e-12
 Reference value :  9.59338e-12
 Reference value :  3.43108e-11
 Reference value :  1.00000e-10
 Reference value :  1.16649e-10
 Reference value :  2.72039e-10
 Reference value :  6.68317e-10
 Reference value :  1.37502e-09
 Reference value :  2.46771e-09
 Reference value :  4.10558e-09
 Reference value :  5.05554e-09
 Reference value :  6.65277e-09
 Reference value :  9.22513e-09
 Reference value :  1.14332e-08
 Reference value :  1.32962e-08
 Reference value :  1.72977e-08
 Reference value :  2.34921e-08
 Reference value :  2.68364e-08
 Reference value :  3.84222e-08
 Reference value :  5.84816e-08
 Reference value :  1.26163e-07
 Reference value :  2.50130e-07
 Reference value :  2.50208e-07
 Reference value :  2.50317e-07
 Reference value :  2.51013e-07
 Reference value :  2.52429e-07
 Reference value :  2.53826e-07
 Reference value :  2.55766e-07
 Reference value :  2.61345e-07
 Reference value :  2.99319e-07
 Reference value :  3.76745e-07
 Reference value :  4.26148e-07
 Reference value :  4.38609e-07
 Reference value :  4.57981e-07
 Reference value :  5.00000e-07
 Reference value :  5.00030e-07
 Reference value :  5.00100e-07
 Reference value :  5.00124e-07
 Reference value :  5.00220e-07
 Reference value :  5.00537e-07
 Reference value :  5.01189e-07
 Reference value :  5.02017e-07
 Reference value :  5.02997e-07
 Reference value :  5.04120e-07
 Reference value :  5.05638e-07
 Reference value :  5.08635e-07
 Reference value :  5.09861e-07
 Reference value :  5.12598e-07
 Reference value :  5.16106e-07
 Reference value :  5.25869e-07
 Reference value :  5.69293e-07
 Reference value :  7.50100e-07
 Reference value :  7.50170e-07
 Reference value :  7.50224e-07
 Reference value :  7.50448e-07
 Reference value :  7.51576e-07
 Reference value :  7.52526e-07
 Reference value :  7.53779e-07
 Reference value :  7.54922e-07
 Reference value :  7.56263e-07
 Reference value :  7.57937e-07
 Reference value :  7.60508e-07
 Reference value :  7.64954e-07
 Reference value :  8.12241e-07
 Reference value :  1.00001e-06
 Reference value :  1.00010e-06
 Reference value :  1.00016e-06
 Reference value :  1.00054e-06
 Reference value :  1.00119e-06
 Reference value :  1.00209e-06
 Reference value :  1.00307e-06
 Reference value :  1.00419e-06
 Reference value :  1.00519e-06
 Reference value :  1.00709e-06
 Reference value :  1.00806e-06
 Reference value :  1.01009e-06
 Reference value :  1.01197e-06
 Reference value :  1.01372e-06
 Reference value :  1.01527e-06
 Reference value :  1.01710e-06
 Reference value :  1.01807e-06
 Reference value :  1.02275e-06
 Reference value :  1.04126e-06
 Reference value :  1.07945e-06
 Reference value :  1.11650e-06
 Reference value :  1.12788e-06
 Reference value :  1.14863e-06
 Reference value :  1.16988e-06
 Reference value :  1.25010e-06
 Reference value :  1.25017e-06
 Reference value :  1.25022e-06
 Reference value :  1.25045e-06
 Reference value :  1.25157e-06
 Reference value :  1.25252e-06
 Reference value :  1.25378e-06
 Reference value :  1.25503e-06
 Reference value :  1.25648e-06
 Reference value :  1.26256e-06
 Reference value :  1.28603e-06
 Reference value :  1.47382e-06
 Reference value :  1.50003e-06
 Reference value :  1.50011e-06
 Reference value :  1.50022e-06
 Reference value :  1.50086e-06
 Reference value :  1.50163e-06
 Reference value :  1.50258e-06
 Reference value :  1.50307e-06
 Reference value :  1.50418e-06
 Reference value :  1.50630e-06
 Reference value :  1.50793e-06
 Reference value :  1.50981e-06
 Reference value :  1.51208e-06
 Reference value :  1.54195e-06
 Reference value :  1.63371e-06
 Reference value :  1.75011e-06
 Reference value :  1.75017e-06
 Reference value :  1.75021e-06
 Reference value :  1.75032e-06
 Reference value :  1.75070e-06
 Reference value :  1.75203e-06
 Reference value :  1.75325e-06
 Reference value :  1.75378e-06
 Reference value :  1.75491e-06
 Reference value :  1.75637e-06
 Reference value :  1.75905e-06
 Reference value :  1.77026e-06
 Reference value :  1.84954e-06
 Reference value :  2.00001e-06
 Reference value :  2.00010e-06
 Reference value :  2.00016e-06
 Reference value :  2.00054e-06
 Reference value :  2.00119e-06
 Reference value :  2.00210e-06
 Reference value :  2.00307e-06
 Reference value :  2.00418e-06
 Reference value :  2.00524e-06
 Reference value :  2.00649e-06
 Reference value :  2.00866e-06
 Reference value :  2.01029e-06
 Reference value :  2.01187e-06
 Reference value :  2.01454e-06
 Reference value :  2.01647e-06
 Reference value :  2.01868e-06
 Reference value :  2.02440e-06
 Reference value :  2.05590e-06
 Reference value :  2.20018e-06
 Reference value :  2.25013e-06
 Reference value :  2.25021e-06
 Reference value :  2.25032e-06
 Reference value :  2.25110e-06
 Reference value :  2.25203e-06
 Reference value :  2.25324e-06
 Reference value :  2.25378e-06
 Reference value :  2.25503e-06
 Reference value :  2.25805e-06
 Reference value :  2.26591e-06
 Reference value :  2.36601e-06
 Reference value :  2.50003e-06
 Reference value :  2.50011e-06
 Reference value :  2.50035e-06
 Reference value :  2.50119e-06
 Reference value :  2.50258e-06
 Reference value :  2.50363e-06
 Reference value :  2.50569e-06
 Reference value :  2.50702e-06
 Reference value :  2.50983e-06
 Reference value :  2.51900e-06
 Reference value :  2.75010e-06
 Reference value :  2.75020e-06
 Reference value :  2.75032e-06
 Reference value :  2.75157e-06
 Reference value :  2.75251e-06
 Reference value :  2.75436e-06
 Reference value :  2.75491e-06
 Reference value :  2.75635e-06
 Reference value :  2.76127e-06
 Reference value :  2.78113e-06
 Reference value :  3.00000e-06
 Reference value :  3.00007e-06
 Reference value :  3.00012e-06
 Reference value :  3.00035e-06
 Reference value :  3.00086e-06
 Reference value :  3.00163e-06
 Reference value :  3.00258e-06
 Reference value :  3.00307e-06
 Reference value :  3.00418e-06
 Reference value :  3.00524e-06
 Reference value :  3.00732e-06
 Reference value :  3.01029e-06
 Reference value :  3.01187e-06
 Reference value :  3.01454e-06
 Reference value :  3.01648e-06
 Reference value :  3.01868e-06
 Reference value :  3.02190e-06
 Reference value :  3.02945e-06
 Reference value :  3.05010e-06
 Reference value :  3.06019e-06
 Reference value :  3.07077e-06
 Reference value :  3.07823e-06
 Reference value :  3.09160e-06
 Reference value :  3.10529e-06
 Reference value :  3.14245e-06
 Reference value :  3.23874e-06
 Reference value :  3.25013e-06
 Reference value :  3.25021e-06
 Reference value :  3.25032e-06
 Reference value :  3.25109e-06
 Reference value :  3.25203e-06
 Reference value :  3.25324e-06
 Reference value :  3.25375e-06
 Reference value :  3.25500e-06
 Reference value :  3.25645e-06
 Reference value :  3.26243e-06
 Reference value :  3.26461e-06
 Reference value :  3.27065e-06
 Reference value :  3.27972e-06
 Reference value :  3.28552e-06
 Reference value :  3.30500e-06
 Reference value :  3.36881e-06
 Reference value :  3.50000e-06
 Reference value :  3.50003e-06
 Reference value :  3.50016e-06
 Reference value :  3.50054e-06
 Reference value :  3.50119e-06
 Reference value :  3.50210e-06
 Reference value :  3.50306e-06
 Reference value :  3.50489e-06
 Reference value :  3.50629e-06
 Reference value :  3.50794e-06
 Reference value :  3.50983e-06
 Reference value :  3.51210e-06
 Reference value :  3.54172e-06
 Reference value :  3.75010e-06
 Reference value :  3.75017e-06
 Reference value :  3.75022e-06
 Reference value :  3.75045e-06
 Reference value :  3.75109e-06
 Reference value :  3.75203e-06
 Reference value :  3.75324e-06
 Reference value :  3.75377e-06
 Reference value :  3.75490e-06
 Reference value :  3.75634e-06
 Reference value :  3.75900e-06
 Reference value :  3.76448e-06
 Reference value :  3.78103e-06
 Reference value :  3.84722e-06
 Reference value :  4.00001e-06
 Reference value :  4.00010e-06
 Reference value :  4.00016e-06
 Reference value :  4.00054e-06
 Reference value :  4.00119e-06
 Reference value :  4.00209e-06
 Reference value :  4.00307e-06
 Reference value :  4.00473e-06
 Reference value :  4.00580e-06
 Reference value :  4.00865e-06
 Reference value :  4.01027e-06
 Reference value :  4.01341e-06
 Reference value :  4.01559e-06
 Reference value :  4.01650e-06
 Reference value :  4.01872e-06
 Reference value :  4.02450e-06
 Reference value :  4.03327e-06
 Reference value :  4.04078e-06
 Reference value :  4.04810e-06
 Reference value :  4.06101e-06
 Reference value :  4.07388e-06
 Reference value :  4.12042e-06
 Reference value :  4.25011e-06
 Reference value :  4.25021e-06
 Reference value :  4.25045e-06
 Reference value :  4.25203e-06
 Reference value :  4.25324e-06
 Reference value :  4.25375e-06
 Reference value :  4.25570e-06
 Reference value :  4.25966e-06
 Reference value :  4.28586e-06
 Reference value :  4.50000e-06
 Reference value :  4.50007e-06
 Reference value :  4.50012e-06
 Reference value :  4.50022e-06
 Reference value :  4.50086e-06
 Reference value :  4.50159e-06
 Reference value :  4.50300e-06
 Reference value :  4.50411e-06
 Reference value :  4.50562e-06
 Reference value :  4.50625e-06
 Reference value :  4.50795e-06
 Reference value :  4.51111e-06
 Reference value :  4.52616e-06
 Reference value :  4.73974e-06
 Reference value :  4.75013e-06
 Reference value :  4.75021e-06
 Reference value :  4.75032e-06
 Reference value :  4.75109e-06
 Reference value :  4.75203e-06
 Reference value :  4.75324e-06
 Reference value :  4.75377e-06
 Reference value :  4.75490e-06
 Reference value :  4.75623e-06
 Reference value :  4.75889e-06
 Reference value :  4.76477e-06
 Reference value :  4.80223e-06
 Reference value :  5.00000e-06
 Reference value :  5.00007e-06
 Reference value :  5.00012e-06
 Reference value :  5.00022e-06
 Reference value :  5.00086e-06
 Reference value :  5.00163e-06
 Reference value :  5.00258e-06
 Reference value :  5.00308e-06
 Reference value :  5.00419e-06
 Reference value :  5.00519e-06
 Reference value :  5.00711e-06
 Reference value :  5.00921e-06
 Reference value :  5.01010e-06
 Reference value :  5.01197e-06
 Reference value :  5.01370e-06
 Reference value :  5.01524e-06
 Reference value :  5.01801e-06
 Reference value :  5.02255e-06
 Reference value :  5.04621e-06
 Reference value :  5.06086e-06
 Reference value :  5.08570e-06
 Reference value :  5.11033e-06
 Reference value :  5.19371e-06
 Reference value :  5.25011e-06
 Reference value :  5.25026e-06
 Reference value :  5.25156e-06
 Reference value :  5.25324e-06
 Reference value :  5.25499e-06
 Reference value :  5.25955e-06
 Reference value :  5.31072e-06
 Reference value :  5.50003e-06
 Reference value :  5.50012e-06
 Reference value :  5.50035e-06
 Reference value :  5.50086e-06
 Reference value :  5.50159e-06
 Reference value :  5.50251e-06
 Reference value :  5.50300e-06
 Reference value :  5.50411e-06
 Reference value :  5.50488e-06
 Reference value :  5.50561e-06
 Reference value :  5.50625e-06
 Reference value :  5.50795e-06
 Reference value :  5.51110e-06
 Reference value :  5.52622e-06
 Reference value :  5.75010e-06
 Reference value :  5.75021e-06
 Reference value :  5.75070e-06
 Reference value :  5.75203e-06
 Reference value :  5.75377e-06
 Reference value :  5.75548e-06
 Reference value :  5.75786e-06
 Reference value :  5.76476e-06
 Reference value :  5.90639e-06
 Reference value :  6.00010e-06
 Reference value :  6.00035e-06
 Reference value :  6.00119e-06
 Reference value :  6.00258e-06
 Reference value :  6.00364e-06
 Reference value :  6.00519e-06
 Reference value :  6.00711e-06
 Reference value :  6.00921e-06
 Reference value :  6.01105e-06
 Reference value :  6.01196e-06
 Reference value :  6.01369e-06
 Reference value :  6.01525e-06
 Reference value :  6.01803e-06
 Reference value :  6.02259e-06
 Reference value :  6.03042e-06
 Reference value :  6.04640e-06
 Reference value :  6.07133e-06
 Reference value :  6.14001e-06
 Reference value :  6.22287e-06
 Reference value :  6.25013e-06
 Reference value :  6.25022e-06
 Reference value :  6.25045e-06
 Reference value :  6.25156e-06
 Reference value :  6.25323e-06
 Reference value :  6.25435e-06
 Reference value :  6.25564e-06
 Reference value :  6.26239e-06
 Reference value :  6.31054e-06
 Reference value :  6.50000e-06
 Reference value :  6.50007e-06
 Reference value :  6.50012e-06
 Reference value :  6.50035e-06
 Reference value :  6.50086e-06
 Reference value :  6.50159e-06
 Reference value :  6.50300e-06
 Reference value :  6.50411e-06
 Reference value :  6.50561e-06
 Reference value :  6.50625e-06
 Reference value :  6.50795e-06
 Reference value :  6.50986e-06
 Reference value :  6.51452e-06
 Reference value :  6.56908e-06
 Reference value :  6.75011e-06
 Reference value :  6.75020e-06
 Reference value :  6.75032e-06
 Reference value :  6.75109e-06
 Reference value :  6.75203e-06
 Reference value :  6.75324e-06
 Reference value :  6.75435e-06
 Reference value :  6.75548e-06
 Reference value :  6.75704e-06
 Reference value :  6.75889e-06
 Reference value :  6.76475e-06
 Reference value :  6.80170e-06
 Reference value :  7.00001e-06
 Reference value :  7.00010e-06
 Reference value :  7.00016e-06
 Reference value :  7.00054e-06
 Reference value :  7.00119e-06
 Reference value :  7.00209e-06
 Reference value :  7.00308e-06
 Reference value :  7.00419e-06
 Reference value :  7.00519e-06
 Reference value :  7.00640e-06
 Reference value :  7.00807e-06
 Reference value :  7.01010e-06
 Reference value :  7.01197e-06
 Reference value :  7.01370e-06
 Reference value :  7.01531e-06
 Reference value :  7.01716e-06
 Reference value :  7.01816e-06
 Reference value :  7.02098e-06
 Reference value :  7.02613e-06
 Reference value :  7.03708e-06
 Reference value :  7.04282e-06
 Reference value :  7.05461e-06
 Reference value :  7.07176e-06
 Reference value :  7.09659e-06
 Reference value :  7.25010e-06
 Reference value :  7.25013e-06
 Reference value :  7.25020e-06
 Reference value :  7.25026e-06
 Reference value :  7.25045e-06
 Reference value :  7.25109e-06
 Reference value :  7.25202e-06
 Reference value :  7.25323e-06
 Reference value :  7.25377e-06
 Reference value :  7.25501e-06
 Reference value :  7.25803e-06
 Reference value :  7.26581e-06
 Reference value :  7.36446e-06
 Reference value :  7.50003e-06
 Reference value :  7.50011e-06
 Reference value :  7.50022e-06
 Reference value :  7.50086e-06
 Reference value :  7.50163e-06
 Reference value :  7.50307e-06
 Reference value :  7.50488e-06
 Reference value :  7.50630e-06
 Reference value :  7.50794e-06
 Reference value :  7.50982e-06
 Reference value :  7.51210e-06
 Reference value :  7.52650e-06
 Reference value :  7.63193e-06
 Reference value :  7.75017e-06
 Reference value :  7.75026e-06
 Reference value :  7.75109e-06
 Reference value :  7.75251e-06
 Reference value :  7.75376e-06
 Reference value :  7.75548e-06
 Reference value :  7.75897e-06
 Reference value :  7.84641e-06
 Reference value :  8.00003e-06
 Reference value :  8.00012e-06
 Reference value :  8.00035e-06
 Reference value :  8.00119e-06
 Reference value :  8.00258e-06
 Reference value :  8.00364e-06
 Reference value :  8.00526e-06
 Reference value :  8.00737e-06
 Reference value :  8.00904e-06
 Reference value :  8.01339e-06
 Reference value :  8.07179e-06
 Reference value :  8.25013e-06
 Reference value :  8.25022e-06
 Reference value :  8.25045e-06
 Reference value :  8.25202e-06
 Reference value :  8.25392e-06
 Reference value :  8.25675e-06
 Reference value :  8.26308e-06
 Reference value :  8.28922e-06
 Reference value :  8.50000e-06
 Reference value :  8.50007e-06
 Reference value :  8.50012e-06
 Reference value :  8.50035e-06
 Reference value :  8.50096e-06
 Reference value :  8.50248e-06
 Reference value :  8.50368e-06
 Reference value :  8.50475e-06
 Reference value :  8.50596e-06
 Reference value :  8.50983e-06
 Reference value :  8.52408e-06
 Reference value :  8.52968e-06
 Reference value :  8.53356e-06
 Reference value :  8.53641e-06
 Reference value :  8.54085e-06
 Reference value :  8.54229e-06
 Reference value :  8.54585e-06
 Reference value :  8.55155e-06
 Reference value :  8.55873e-06
 Reference value :  8.57571e-06
 Reference value :  8.62088e-06
 Reference value :  8.71262e-06
 Reference value :  8.75013e-06
 Reference value :  8.75021e-06
 Reference value :  8.75032e-06
 Reference value :  8.75109e-06
 Reference value :  8.75202e-06
 Reference value :  8.75322e-06
 Reference value :  8.75375e-06
 Reference value :  8.75498e-06
 Reference value :  8.75640e-06
 Reference value :  8.75951e-06
 Reference value :  8.77192e-06
 Reference value :  8.86127e-06
 Reference value :  9.00000e-06
No. of Data Rows : 1340
ngspice-44 done
