
Note: Compatibility modes selected: hs a


Circuit: ** sch_path: /home/samantha/cace/sar-adc-using-sky130-pdk/runs/run_2025-09-05_20-47-28/parameters/inl/run_3/sar_output.sch

option SCALE: Scale is set to 1e-06 for instance and model parameters
option SCALE: Scale is set to 1e-06 for instance and model parameters
option SCALE: Scale is set to 1e-06 for instance and model parameters
option SCALE: Scale is set to 1e-06 for instance and model parameters
Doing analysis at TEMP = 27.000000 and TNOM = 27.000000

Using KLU as Direct Linear Solver
Operating point simulation skipped by 'uic',
  now using transient initial conditions.
 Reference value :  1.00000e-12
 Reference value :  1.02386e-12
 Reference value :  1.07159e-12
 Reference value :  1.14191e-12
 Reference value :  1.21992e-12
 Reference value :  1.35800e-12
 Reference value :  1.57250e-12
 Reference value :  1.90217e-12
 Reference value :  2.53065e-12
 Reference value :  3.45816e-12
 Reference value :  4.88207e-12
 Reference value :  6.40379e-12
 Reference value :  8.74779e-12
 Reference value :  1.27886e-11
 Reference value :  1.82889e-11
 Reference value :  2.51890e-11
 Reference value :  3.42446e-11
 Reference value :  4.43136e-11
 Reference value :  6.01851e-11
 Reference value :  7.79402e-11
 Reference value :  1.00000e-10
 Reference value :  1.00423e-10
 Reference value :  1.01270e-10
 Reference value :  1.02964e-10
 Reference value :  1.06314e-10
 Reference value :  1.13015e-10
 Reference value :  1.26416e-10
 Reference value :  1.53219e-10
 Reference value :  1.90614e-10
 Reference value :  2.38420e-10
 Reference value :  3.06643e-10
 Reference value :  4.30241e-10
 Reference value :  6.61611e-10
 Reference value :  9.48527e-10
 Reference value :  1.37975e-09
 Reference value :  1.87552e-09
 Reference value :  2.64003e-09
 Reference value :  3.50545e-09
 Reference value :  4.51178e-09
 Reference value :  5.34617e-09
 Reference value :  6.25245e-09
 Reference value :  7.11132e-09
 Reference value :  7.99489e-09
 Reference value :  9.03107e-09
 Reference value :  1.01313e-08
 Reference value :  1.12992e-08
 Reference value :  1.26771e-08
 Reference value :  1.41147e-08
 Reference value :  1.52631e-08
 Reference value :  1.65441e-08
 Reference value :  1.77095e-08
 Reference value :  1.89998e-08
 Reference value :  2.06115e-08
 Reference value :  2.22378e-08
 Reference value :  2.33660e-08
 Reference value :  2.48363e-08
 Reference value :  2.64331e-08
 Reference value :  2.79248e-08
 Reference value :  2.91964e-08
 Reference value :  3.06224e-08
 Reference value :  3.22437e-08
 Reference value :  3.40539e-08
 Reference value :  3.76741e-08
 Reference value :  4.49145e-08
 Reference value :  5.93955e-08
 Reference value :  8.51056e-08
 Reference value :  1.10917e-07
 Reference value :  1.27595e-07
 Reference value :  1.38592e-07
 Reference value :  1.46497e-07
 Reference value :  1.52645e-07
 Reference value :  1.59210e-07
 Reference value :  1.65442e-07
 Reference value :  1.72011e-07
 Reference value :  1.85149e-07
 Reference value :  2.03009e-07
 Reference value :  2.32173e-07
 Reference value :  2.50100e-07
 Reference value :  2.50110e-07
 Reference value :  2.50130e-07
 Reference value :  2.50170e-07
 Reference value :  2.50200e-07
 Reference value :  2.50201e-07
 Reference value :  2.50202e-07
 Reference value :  2.50204e-07
 Reference value :  2.50208e-07
 Reference value :  2.50216e-07
 Reference value :  2.50232e-07
 Reference value :  2.50265e-07
 Reference value :  2.50331e-07
 Reference value :  2.50414e-07
 Reference value :  2.50579e-07
 Reference value :  2.50745e-07
 Reference value :  2.51077e-07
 Reference value :  2.51464e-07
 Reference value :  2.52140e-07
 Reference value :  2.52795e-07
 Reference value :  2.53525e-07
 Reference value :  2.54495e-07
 Reference value :  2.55498e-07
 Reference value :  2.56526e-07
 Reference value :  2.57716e-07
 Reference value :  2.58793e-07
 Reference value :  2.60121e-07
 Reference value :  2.61350e-07
 Reference value :  2.63006e-07
 Reference value :  2.65895e-07
 Reference value :  2.69847e-07
 Reference value :  2.77665e-07
 Reference value :  2.91297e-07
 Reference value :  3.15062e-07
 Reference value :  3.59729e-07
 Reference value :  4.37611e-07
 Reference value :  5.00000e-07
 Reference value :  5.00010e-07
 Reference value :  5.00030e-07
 Reference value :  5.00070e-07
 Reference value :  5.00100e-07
 Reference value :  5.00101e-07
 Reference value :  5.00102e-07
 Reference value :  5.00104e-07
 Reference value :  5.00108e-07
 Reference value :  5.00116e-07
 Reference value :  5.00133e-07
 Reference value :  5.00166e-07
 Reference value :  5.00232e-07
 Reference value :  5.00364e-07
 Reference value :  5.00562e-07
 Reference value :  5.00958e-07
 Reference value :  5.01468e-07
 Reference value :  5.02005e-07
 Reference value :  5.02765e-07
 Reference value :  5.03572e-07
 Reference value :  5.04320e-07
 Reference value :  5.05131e-07
 Reference value :  5.06130e-07
 Reference value :  5.07176e-07
 Reference value :  5.08402e-07
 Reference value :  5.09764e-07
 Reference value :  5.11619e-07
 Reference value :  5.13521e-07
 Reference value :  5.15478e-07
 Reference value :  5.17410e-07
 Reference value :  5.19723e-07
 Reference value :  5.23968e-07
 Reference value :  5.26998e-07
 Reference value :  5.30563e-07
 Reference value :  5.34330e-07
 Reference value :  5.38301e-07
 Reference value :  5.44494e-07
 Reference value :  5.50307e-07
 Reference value :  5.60227e-07
 Reference value :  5.73372e-07
 Reference value :  5.99660e-07
 Reference value :  6.51185e-07
 Reference value :  7.38539e-07
 Reference value :  7.50100e-07
 Reference value :  7.50110e-07
 Reference value :  7.50130e-07
 Reference value :  7.50170e-07
 Reference value :  7.50200e-07
 Reference value :  7.50201e-07
 Reference value :  7.50202e-07
 Reference value :  7.50204e-07
 Reference value :  7.50208e-07
 Reference value :  7.50216e-07
 Reference value :  7.50233e-07
 Reference value :  7.50266e-07
 Reference value :  7.50333e-07
 Reference value :  7.50467e-07
 Reference value :  7.50644e-07
 Reference value :  7.50914e-07
 Reference value :  7.51453e-07
 Reference value :  7.52099e-07
 Reference value :  7.52799e-07
 Reference value :  7.53529e-07
 Reference value :  7.54426e-07
 Reference value :  7.55524e-07
 Reference value :  7.56676e-07
 Reference value :  7.57707e-07
 Reference value :  7.58806e-07
 Reference value :  7.59801e-07
 Reference value :  7.60851e-07
 Reference value :  7.62085e-07
 Reference value :  7.63384e-07
 Reference value :  7.64954e-07
 Reference value :  7.66881e-07
 Reference value :  7.69513e-07
 Reference value :  7.72595e-07
 Reference value :  7.77490e-07
 Reference value :  7.87280e-07
 Reference value :  8.04452e-07
 Reference value :  8.36344e-07
 Reference value :  8.96039e-07
 Reference value :  1.00000e-06
 Reference value :  1.00001e-06
 Reference value :  1.00003e-06
 Reference value :  1.00007e-06
 Reference value :  1.00010e-06
 Reference value :  1.00010e-06
 Reference value :  1.00010e-06
 Reference value :  1.00010e-06
 Reference value :  1.00011e-06
 Reference value :  1.00012e-06
 Reference value :  1.00013e-06
 Reference value :  1.00017e-06
 Reference value :  1.00023e-06
 Reference value :  1.00036e-06
 Reference value :  1.00056e-06
 Reference value :  1.00096e-06
 Reference value :  1.00147e-06
 Reference value :  1.00201e-06
 Reference value :  1.00276e-06
 Reference value :  1.00346e-06
 Reference value :  1.00420e-06
 Reference value :  1.00499e-06
 Reference value :  1.00587e-06
 Reference value :  1.00691e-06
 Reference value :  1.00768e-06
 Reference value :  1.00855e-06
 Reference value :  1.00939e-06
 Reference value :  1.01026e-06
 Reference value :  1.01143e-06
 Reference value :  1.01268e-06
 Reference value :  1.01518e-06
 Reference value :  1.01755e-06
 Reference value :  1.01942e-06
 Reference value :  1.02149e-06
 Reference value :  1.02435e-06
 Reference value :  1.02664e-06
 Reference value :  1.02866e-06
 Reference value :  1.03014e-06
 Reference value :  1.03157e-06
 Reference value :  1.03322e-06
 Reference value :  1.03488e-06
 Reference value :  1.03684e-06
 Reference value :  1.03987e-06
 Reference value :  1.04308e-06
 Reference value :  1.04951e-06
 Reference value :  1.05933e-06
 Reference value :  1.07644e-06
 Reference value :  1.10720e-06
 Reference value :  1.15828e-06
 Reference value :  1.23309e-06
 Reference value :  1.25010e-06
 Reference value :  1.25011e-06
 Reference value :  1.25013e-06
 Reference value :  1.25017e-06
 Reference value :  1.25020e-06
 Reference value :  1.25020e-06
 Reference value :  1.25020e-06
 Reference value :  1.25020e-06
 Reference value :  1.25021e-06
 Reference value :  1.25022e-06
 Reference value :  1.25023e-06
 Reference value :  1.25027e-06
 Reference value :  1.25033e-06
 Reference value :  1.25047e-06
 Reference value :  1.25064e-06
 Reference value :  1.25091e-06
 Reference value :  1.25145e-06
 Reference value :  1.25210e-06
 Reference value :  1.25288e-06
 Reference value :  1.25358e-06
 Reference value :  1.25455e-06
 Reference value :  1.25561e-06
 Reference value :  1.25652e-06
 Reference value :  1.25760e-06
 Reference value :  1.25872e-06
 Reference value :  1.25987e-06
 Reference value :  1.26137e-06
 Reference value :  1.26391e-06
 Reference value :  1.26735e-06
 Reference value :  1.27248e-06
 Reference value :  1.28273e-06
 Reference value :  1.29892e-06
 Reference value :  1.33106e-06
 Reference value :  1.39534e-06
 Reference value :  1.50000e-06
 Reference value :  1.50001e-06
 Reference value :  1.50003e-06
 Reference value :  1.50007e-06
 Reference value :  1.50010e-06
 Reference value :  1.50010e-06
 Reference value :  1.50010e-06
 Reference value :  1.50010e-06
 Reference value :  1.50011e-06
 Reference value :  1.50012e-06
 Reference value :  1.50013e-06
 Reference value :  1.50017e-06
 Reference value :  1.50023e-06
 Reference value :  1.50036e-06
 Reference value :  1.50056e-06
 Reference value :  1.50095e-06
 Reference value :  1.50146e-06
 Reference value :  1.50200e-06
 Reference value :  1.50275e-06
 Reference value :  1.50344e-06
 Reference value :  1.50417e-06
 Reference value :  1.50501e-06
 Reference value :  1.50593e-06
 Reference value :  1.50691e-06
 Reference value :  1.50791e-06
 Reference value :  1.50963e-06
 Reference value :  1.51120e-06
 Reference value :  1.51316e-06
 Reference value :  1.51475e-06
 Reference value :  1.51645e-06
 Reference value :  1.51872e-06
 Reference value :  1.52106e-06
 Reference value :  1.52496e-06
 Reference value :  1.53015e-06
 Reference value :  1.53825e-06
 Reference value :  1.55114e-06
 Reference value :  1.57406e-06
 Reference value :  1.61735e-06
 Reference value :  1.69457e-06
 Reference value :  1.75010e-06
 Reference value :  1.75011e-06
 Reference value :  1.75013e-06
 Reference value :  1.75017e-06
 Reference value :  1.75020e-06
 Reference value :  1.75020e-06
 Reference value :  1.75020e-06
 Reference value :  1.75020e-06
 Reference value :  1.75021e-06
 Reference value :  1.75022e-06
 Reference value :  1.75023e-06
 Reference value :  1.75027e-06
 Reference value :  1.75033e-06
 Reference value :  1.75047e-06
 Reference value :  1.75064e-06
 Reference value :  1.75091e-06
 Reference value :  1.75145e-06
 Reference value :  1.75210e-06
 Reference value :  1.75288e-06
 Reference value :  1.75358e-06
 Reference value :  1.75454e-06
 Reference value :  1.75561e-06
 Reference value :  1.75653e-06
 Reference value :  1.75762e-06
 Reference value :  1.75853e-06
 Reference value :  1.75951e-06
 Reference value :  1.76064e-06
 Reference value :  1.76189e-06
 Reference value :  1.76337e-06
 Reference value :  1.76497e-06
 Reference value :  1.76740e-06
 Reference value :  1.77001e-06
 Reference value :  1.77436e-06
 Reference value :  1.78306e-06
 Reference value :  1.79609e-06
 Reference value :  1.82159e-06
 Reference value :  1.86459e-06
 Reference value :  1.94068e-06
 Reference value :  2.00000e-06
 Reference value :  2.00001e-06
 Reference value :  2.00003e-06
 Reference value :  2.00007e-06
 Reference value :  2.00010e-06
 Reference value :  2.00010e-06
 Reference value :  2.00010e-06
 Reference value :  2.00010e-06
 Reference value :  2.00011e-06
 Reference value :  2.00012e-06
 Reference value :  2.00013e-06
 Reference value :  2.00017e-06
 Reference value :  2.00023e-06
 Reference value :  2.00036e-06
 Reference value :  2.00056e-06
 Reference value :  2.00095e-06
 Reference value :  2.00146e-06
 Reference value :  2.00200e-06
 Reference value :  2.00275e-06
 Reference value :  2.00345e-06
 Reference value :  2.00418e-06
 Reference value :  2.00498e-06
 Reference value :  2.00586e-06
 Reference value :  2.00661e-06
 Reference value :  2.00746e-06
 Reference value :  2.00819e-06
 Reference value :  2.00904e-06
 Reference value :  2.01011e-06
 Reference value :  2.01122e-06
 Reference value :  2.01324e-06
 Reference value :  2.01537e-06
 Reference value :  2.01761e-06
 Reference value :  2.01983e-06
 Reference value :  2.02193e-06
 Reference value :  2.02420e-06
 Reference value :  2.02601e-06
 Reference value :  2.02744e-06
 Reference value :  2.02897e-06
 Reference value :  2.03070e-06
 Reference value :  2.03257e-06
 Reference value :  2.03462e-06
 Reference value :  2.03763e-06
 Reference value :  2.04131e-06
 Reference value :  2.04867e-06
 Reference value :  2.05848e-06
 Reference value :  2.07618e-06
 Reference value :  2.09867e-06
 Reference value :  2.13478e-06
 Reference value :  2.17197e-06
 Reference value :  2.20275e-06
 Reference value :  2.22293e-06
 Reference value :  2.24297e-06
 Reference value :  2.25010e-06
 Reference value :  2.25011e-06
 Reference value :  2.25013e-06
 Reference value :  2.25017e-06
 Reference value :  2.25020e-06
 Reference value :  2.25020e-06
 Reference value :  2.25020e-06
 Reference value :  2.25020e-06
 Reference value :  2.25021e-06
 Reference value :  2.25022e-06
 Reference value :  2.25023e-06
 Reference value :  2.25027e-06
 Reference value :  2.25033e-06
 Reference value :  2.25047e-06
 Reference value :  2.25064e-06
 Reference value :  2.25091e-06
 Reference value :  2.25145e-06
 Reference value :  2.25210e-06
 Reference value :  2.25288e-06
 Reference value :  2.25358e-06
 Reference value :  2.25454e-06
 Reference value :  2.25561e-06
 Reference value :  2.25661e-06
 Reference value :  2.25770e-06
 Reference value :  2.25881e-06
 Reference value :  2.26038e-06
 Reference value :  2.26246e-06
 Reference value :  2.26502e-06
 Reference value :  2.26891e-06
 Reference value :  2.27554e-06
 Reference value :  2.28651e-06
 Reference value :  2.30473e-06
 Reference value :  2.34118e-06
 Reference value :  2.39745e-06
 Reference value :  2.46072e-06
 Reference value :  2.50000e-06
 Reference value :  2.50001e-06
 Reference value :  2.50003e-06
 Reference value :  2.50007e-06
 Reference value :  2.50010e-06
 Reference value :  2.50010e-06
 Reference value :  2.50010e-06
 Reference value :  2.50010e-06
 Reference value :  2.50011e-06
 Reference value :  2.50012e-06
 Reference value :  2.50013e-06
 Reference value :  2.50017e-06
 Reference value :  2.50023e-06
 Reference value :  2.50036e-06
 Reference value :  2.50055e-06
 Reference value :  2.50091e-06
 Reference value :  2.50141e-06
 Reference value :  2.50194e-06
 Reference value :  2.50269e-06
 Reference value :  2.50338e-06
 Reference value :  2.50409e-06
 Reference value :  2.50487e-06
 Reference value :  2.50575e-06
 Reference value :  2.50669e-06
 Reference value :  2.50793e-06
 Reference value :  2.50945e-06
 Reference value :  2.51166e-06
 Reference value :  2.51317e-06
 Reference value :  2.51482e-06
 Reference value :  2.51648e-06
 Reference value :  2.51878e-06
 Reference value :  2.52128e-06
 Reference value :  2.52550e-06
 Reference value :  2.53150e-06
 Reference value :  2.54115e-06
 Reference value :  2.55995e-06
 Reference value :  2.58951e-06
 Reference value :  2.64404e-06
 Reference value :  2.73757e-06
 Reference value :  2.75010e-06
 Reference value :  2.75011e-06
 Reference value :  2.75013e-06
 Reference value :  2.75017e-06
 Reference value :  2.75020e-06
 Reference value :  2.75020e-06
 Reference value :  2.75020e-06
 Reference value :  2.75020e-06
 Reference value :  2.75021e-06
 Reference value :  2.75022e-06
 Reference value :  2.75023e-06
 Reference value :  2.75027e-06
 Reference value :  2.75033e-06
 Reference value :  2.75047e-06
 Reference value :  2.75064e-06
 Reference value :  2.75091e-06
 Reference value :  2.75145e-06
 Reference value :  2.75210e-06
 Reference value :  2.75287e-06
 Reference value :  2.75358e-06
 Reference value :  2.75455e-06
 Reference value :  2.75561e-06
 Reference value :  2.75658e-06
 Reference value :  2.75748e-06
 Reference value :  2.75844e-06
 Reference value :  2.75955e-06
 Reference value :  2.76080e-06
 Reference value :  2.76330e-06
 Reference value :  2.76642e-06
 Reference value :  2.77102e-06
 Reference value :  2.77933e-06
 Reference value :  2.79441e-06
 Reference value :  2.81964e-06
 Reference value :  2.87008e-06
 Reference value :  2.97096e-06
 Reference value :  3.00000e-06
 Reference value :  3.00001e-06
 Reference value :  3.00003e-06
 Reference value :  3.00007e-06
 Reference value :  3.00010e-06
 Reference value :  3.00010e-06
 Reference value :  3.00010e-06
 Reference value :  3.00010e-06
 Reference value :  3.00011e-06
 Reference value :  3.00012e-06
 Reference value :  3.00013e-06
 Reference value :  3.00017e-06
 Reference value :  3.00023e-06
 Reference value :  3.00036e-06
 Reference value :  3.00055e-06
 Reference value :  3.00091e-06
 Reference value :  3.00141e-06
 Reference value :  3.00194e-06
 Reference value :  3.00269e-06
 Reference value :  3.00338e-06
 Reference value :  3.00409e-06
 Reference value :  3.00487e-06
 Reference value :  3.00574e-06
 Reference value :  3.00666e-06
 Reference value :  3.00762e-06
 Reference value :  3.00843e-06
 Reference value :  3.00934e-06
 Reference value :  3.01050e-06
 Reference value :  3.01172e-06
 Reference value :  3.01403e-06
 Reference value :  3.01619e-06
 Reference value :  3.01900e-06
 Reference value :  3.02129e-06
 Reference value :  3.02336e-06
 Reference value :  3.02481e-06
 Reference value :  3.02635e-06
 Reference value :  3.02792e-06
 Reference value :  3.02954e-06
 Reference value :  3.03139e-06
 Reference value :  3.03463e-06
 Reference value :  3.03757e-06
 Reference value :  3.04344e-06
 Reference value :  3.05244e-06
 Reference value :  3.06169e-06
 Reference value :  3.07039e-06
 Reference value :  3.07624e-06
 Reference value :  3.08362e-06
 Reference value :  3.08791e-06
 Reference value :  3.09330e-06
 Reference value :  3.10153e-06
 Reference value :  3.10903e-06
 Reference value :  3.11567e-06
 Reference value :  3.12480e-06
 Reference value :  3.13407e-06
 Reference value :  3.15129e-06
 Reference value :  3.17328e-06
 Reference value :  3.20869e-06
 Reference value :  3.25010e-06
 Reference value :  3.25011e-06
 Reference value :  3.25013e-06
 Reference value :  3.25017e-06
 Reference value :  3.25020e-06
 Reference value :  3.25020e-06
 Reference value :  3.25020e-06
 Reference value :  3.25020e-06
 Reference value :  3.25021e-06
 Reference value :  3.25022e-06
 Reference value :  3.25023e-06
 Reference value :  3.25027e-06
 Reference value :  3.25033e-06
 Reference value :  3.25047e-06
 Reference value :  3.25064e-06
 Reference value :  3.25091e-06
 Reference value :  3.25145e-06
 Reference value :  3.25210e-06
 Reference value :  3.25287e-06
 Reference value :  3.25358e-06
 Reference value :  3.25455e-06
 Reference value :  3.25561e-06
 Reference value :  3.25658e-06
 Reference value :  3.25758e-06
 Reference value :  3.25864e-06
 Reference value :  3.26037e-06
 Reference value :  3.26199e-06
 Reference value :  3.26479e-06
 Reference value :  3.26828e-06
 Reference value :  3.27518e-06
 Reference value :  3.28622e-06
 Reference value :  3.30459e-06
 Reference value :  3.34134e-06
 Reference value :  3.41333e-06
 Reference value :  3.50000e-06
 Reference value :  3.50001e-06
 Reference value :  3.50003e-06
 Reference value :  3.50007e-06
 Reference value :  3.50010e-06
 Reference value :  3.50010e-06
 Reference value :  3.50010e-06
 Reference value :  3.50010e-06
 Reference value :  3.50011e-06
 Reference value :  3.50012e-06
 Reference value :  3.50013e-06
 Reference value :  3.50017e-06
 Reference value :  3.50023e-06
 Reference value :  3.50036e-06
 Reference value :  3.50055e-06
 Reference value :  3.50091e-06
 Reference value :  3.50141e-06
 Reference value :  3.50194e-06
 Reference value :  3.50269e-06
 Reference value :  3.50338e-06
 Reference value :  3.50410e-06
 Reference value :  3.50490e-06
 Reference value :  3.50579e-06
 Reference value :  3.50677e-06
 Reference value :  3.50802e-06
 Reference value :  3.50960e-06
 Reference value :  3.51110e-06
 Reference value :  3.51269e-06
 Reference value :  3.51429e-06
 Reference value :  3.51593e-06
 Reference value :  3.51761e-06
 Reference value :  3.51988e-06
 Reference value :  3.52225e-06
 Reference value :  3.52654e-06
 Reference value :  3.53270e-06
 Reference value :  3.54339e-06
 Reference value :  3.56268e-06
 Reference value :  3.59567e-06
 Reference value :  3.65745e-06
 Reference value :  3.75010e-06
 Reference value :  3.75011e-06
 Reference value :  3.75013e-06
 Reference value :  3.75017e-06
 Reference value :  3.75020e-06
 Reference value :  3.75020e-06
 Reference value :  3.75020e-06
 Reference value :  3.75020e-06
 Reference value :  3.75021e-06
 Reference value :  3.75022e-06
 Reference value :  3.75023e-06
 Reference value :  3.75027e-06
 Reference value :  3.75033e-06
 Reference value :  3.75047e-06
 Reference value :  3.75064e-06
 Reference value :  3.75091e-06
 Reference value :  3.75145e-06
 Reference value :  3.75210e-06
 Reference value :  3.75288e-06
 Reference value :  3.75358e-06
 Reference value :  3.75455e-06
 Reference value :  3.75561e-06
 Reference value :  3.75651e-06
 Reference value :  3.75749e-06
 Reference value :  3.75843e-06
 Reference value :  3.75946e-06
 Reference value :  3.76064e-06
 Reference value :  3.76202e-06
 Reference value :  3.76348e-06
 Reference value :  3.76599e-06
 Reference value :  3.76855e-06
 Reference value :  3.77220e-06
 Reference value :  3.77739e-06
 Reference value :  3.78778e-06
 Reference value :  3.80855e-06
 Reference value :  3.85010e-06
 Reference value :  3.93320e-06
 Reference value :  4.00000e-06
 Reference value :  4.00001e-06
 Reference value :  4.00003e-06
 Reference value :  4.00007e-06
 Reference value :  4.00010e-06
 Reference value :  4.00010e-06
 Reference value :  4.00010e-06
 Reference value :  4.00010e-06
 Reference value :  4.00011e-06
 Reference value :  4.00012e-06
 Reference value :  4.00013e-06
 Reference value :  4.00017e-06
 Reference value :  4.00023e-06
 Reference value :  4.00036e-06
 Reference value :  4.00055e-06
 Reference value :  4.00091e-06
 Reference value :  4.00141e-06
 Reference value :  4.00194e-06
 Reference value :  4.00269e-06
 Reference value :  4.00337e-06
 Reference value :  4.00409e-06
 Reference value :  4.00487e-06
 Reference value :  4.00575e-06
 Reference value :  4.00648e-06
 Reference value :  4.00727e-06
 Reference value :  4.00802e-06
 Reference value :  4.00888e-06
 Reference value :  4.00970e-06
 Reference value :  4.01095e-06
 Reference value :  4.01209e-06
 Reference value :  4.01417e-06
 Reference value :  4.01638e-06
 Reference value :  4.01810e-06
 Reference value :  4.01997e-06
 Reference value :  4.02245e-06
 Reference value :  4.02450e-06
 Reference value :  4.02607e-06
 Reference value :  4.02753e-06
 Reference value :  4.02910e-06
 Reference value :  4.03070e-06
 Reference value :  4.03252e-06
 Reference value :  4.03571e-06
 Reference value :  4.03863e-06
 Reference value :  4.04446e-06
 Reference value :  4.05369e-06
 Reference value :  4.06789e-06
 Reference value :  4.08287e-06
 Reference value :  4.09661e-06
 Reference value :  4.10994e-06
 Reference value :  4.11745e-06
 Reference value :  4.12463e-06
 Reference value :  4.13228e-06
 Reference value :  4.14044e-06
 Reference value :  4.15674e-06
 Reference value :  4.17718e-06
 Reference value :  4.21121e-06
 Reference value :  4.24373e-06
 Reference value :  4.25010e-06
 Reference value :  4.25011e-06
 Reference value :  4.25013e-06
 Reference value :  4.25017e-06
 Reference value :  4.25020e-06
 Reference value :  4.25020e-06
 Reference value :  4.25020e-06
 Reference value :  4.25020e-06
 Reference value :  4.25021e-06
 Reference value :  4.25022e-06
 Reference value :  4.25023e-06
 Reference value :  4.25027e-06
 Reference value :  4.25033e-06
 Reference value :  4.25042e-06
 Reference value :  4.25058e-06
 Reference value :  4.25077e-06
 Reference value :  4.25109e-06
 Reference value :  4.25172e-06
 Reference value :  4.25234e-06
 Reference value :  4.25304e-06
 Reference value :  4.25378e-06
 Reference value :  4.25472e-06
 Reference value :  4.25552e-06
 Reference value :  4.25643e-06
 Reference value :  4.25732e-06
 Reference value :  4.25827e-06
 Reference value :  4.25979e-06
 Reference value :  4.26132e-06
 Reference value :  4.26394e-06
 Reference value :  4.26723e-06
 Reference value :  4.27236e-06
 Reference value :  4.28261e-06
 Reference value :  4.29733e-06
 Reference value :  4.31115e-06
 Reference value :  4.32358e-06
 Reference value :  4.33954e-06
 Reference value :  4.36580e-06
 Reference value :  4.41237e-06
 Reference value :  4.47407e-06
 Reference value :  4.50000e-06
 Reference value :  4.50001e-06
 Reference value :  4.50003e-06
 Reference value :  4.50007e-06
 Reference value :  4.50010e-06
 Reference value :  4.50010e-06
 Reference value :  4.50010e-06
 Reference value :  4.50010e-06
 Reference value :  4.50011e-06
 Reference value :  4.50012e-06
 Reference value :  4.50013e-06
 Reference value :  4.50017e-06
 Reference value :  4.50023e-06
 Reference value :  4.50036e-06
 Reference value :  4.50062e-06
 Reference value :  4.50109e-06
 Reference value :  4.50174e-06
 Reference value :  4.50246e-06
 Reference value :  4.50308e-06
 Reference value :  4.50385e-06
 Reference value :  4.50481e-06
 Reference value :  4.50576e-06
 Reference value :  4.50670e-06
 Reference value :  4.50785e-06
 Reference value :  4.50928e-06
 Reference value :  4.51101e-06
 Reference value :  4.51234e-06
 Reference value :  4.51378e-06
 Reference value :  4.51521e-06
 Reference value :  4.51689e-06
 Reference value :  4.51866e-06
 Reference value :  4.52190e-06
 Reference value :  4.52661e-06
 Reference value :  4.53547e-06
 Reference value :  4.55227e-06
 Reference value :  4.58165e-06
 Reference value :  4.64040e-06
 Reference value :  4.75010e-06
 Reference value :  4.75011e-06
 Reference value :  4.75013e-06
 Reference value :  4.75017e-06
 Reference value :  4.75020e-06
 Reference value :  4.75020e-06
 Reference value :  4.75020e-06
 Reference value :  4.75020e-06
 Reference value :  4.75021e-06
 Reference value :  4.75022e-06
 Reference value :  4.75023e-06
 Reference value :  4.75027e-06
 Reference value :  4.75033e-06
 Reference value :  4.75042e-06
 Reference value :  4.75058e-06
 Reference value :  4.75077e-06
 Reference value :  4.75108e-06
 Reference value :  4.75171e-06
 Reference value :  4.75233e-06
 Reference value :  4.75303e-06
 Reference value :  4.75377e-06
 Reference value :  4.75471e-06
 Reference value :  4.75554e-06
 Reference value :  4.75647e-06
 Reference value :  4.75728e-06
 Reference value :  4.75818e-06
 Reference value :  4.75921e-06
 Reference value :  4.76036e-06
 Reference value :  4.76178e-06
 Reference value :  4.76326e-06
 Reference value :  4.76563e-06
 Reference value :  4.76814e-06
 Reference value :  4.77193e-06
 Reference value :  4.77713e-06
 Reference value :  4.78754e-06
 Reference value :  4.80835e-06
 Reference value :  4.84997e-06
 Reference value :  4.93320e-06
 Reference value :  5.00000e-06
 Reference value :  5.00001e-06
 Reference value :  5.00003e-06
 Reference value :  5.00007e-06
 Reference value :  5.00010e-06
 Reference value :  5.00010e-06
 Reference value :  5.00010e-06
 Reference value :  5.00010e-06
 Reference value :  5.00011e-06
 Reference value :  5.00012e-06
 Reference value :  5.00013e-06
 Reference value :  5.00017e-06
 Reference value :  5.00023e-06
 Reference value :  5.00036e-06
 Reference value :  5.00062e-06
 Reference value :  5.00109e-06
 Reference value :  5.00174e-06
 Reference value :  5.00246e-06
 Reference value :  5.00309e-06
 Reference value :  5.00386e-06
 Reference value :  5.00471e-06
 Reference value :  5.00560e-06
 Reference value :  5.00637e-06
 Reference value :  5.00718e-06
 Reference value :  5.00789e-06
 Reference value :  5.00869e-06
 Reference value :  5.00966e-06
 Reference value :  5.01075e-06
 Reference value :  5.01294e-06
 Reference value :  5.01511e-06
 Reference value :  5.01737e-06
 Reference value :  5.01946e-06
 Reference value :  5.02159e-06
 Reference value :  5.02392e-06
 Reference value :  5.02612e-06
 Reference value :  5.02781e-06
 Reference value :  5.02940e-06
 Reference value :  5.03094e-06
 Reference value :  5.03255e-06
 Reference value :  5.03441e-06
 Reference value :  5.03673e-06
 Reference value :  5.03928e-06
 Reference value :  5.04131e-06
 Reference value :  5.04348e-06
 Reference value :  5.04571e-06
 Reference value :  5.04804e-06
 Reference value :  5.05269e-06
 Reference value :  5.05863e-06
 Reference value :  5.06885e-06
 Reference value :  5.08017e-06
 Reference value :  5.09426e-06
 Reference value :  5.11198e-06
 Reference value :  5.14364e-06
 Reference value :  5.18267e-06
 Reference value :  5.25010e-06
 Reference value :  5.25011e-06
 Reference value :  5.25013e-06
 Reference value :  5.25017e-06
 Reference value :  5.25020e-06
 Reference value :  5.25020e-06
 Reference value :  5.25020e-06
 Reference value :  5.25020e-06
 Reference value :  5.25021e-06
 Reference value :  5.25022e-06
 Reference value :  5.25023e-06
 Reference value :  5.25027e-06
 Reference value :  5.25033e-06
 Reference value :  5.25042e-06
 Reference value :  5.25058e-06
 Reference value :  5.25076e-06
 Reference value :  5.25108e-06
 Reference value :  5.25172e-06
 Reference value :  5.25234e-06
 Reference value :  5.25305e-06
 Reference value :  5.25379e-06
 Reference value :  5.25473e-06
 Reference value :  5.25576e-06
 Reference value :  5.25652e-06
 Reference value :  5.25740e-06
 Reference value :  5.25838e-06
 Reference value :  5.25951e-06
 Reference value :  5.26072e-06
 Reference value :  5.26314e-06
 Reference value :  5.26626e-06
 Reference value :  5.27079e-06
 Reference value :  5.27951e-06
 Reference value :  5.29693e-06
 Reference value :  5.33178e-06
 Reference value :  5.40148e-06
 Reference value :  5.50000e-06
 Reference value :  5.50001e-06
 Reference value :  5.50003e-06
 Reference value :  5.50007e-06
 Reference value :  5.50010e-06
 Reference value :  5.50010e-06
 Reference value :  5.50010e-06
 Reference value :  5.50010e-06
 Reference value :  5.50011e-06
 Reference value :  5.50012e-06
 Reference value :  5.50013e-06
 Reference value :  5.50017e-06
 Reference value :  5.50023e-06
 Reference value :  5.50036e-06
 Reference value :  5.50062e-06
 Reference value :  5.50109e-06
 Reference value :  5.50174e-06
 Reference value :  5.50246e-06
 Reference value :  5.50308e-06
 Reference value :  5.50385e-06
 Reference value :  5.50481e-06
 Reference value :  5.50576e-06
 Reference value :  5.50670e-06
 Reference value :  5.50780e-06
 Reference value :  5.50917e-06
 Reference value :  5.51076e-06
 Reference value :  5.51223e-06
 Reference value :  5.51357e-06
 Reference value :  5.51505e-06
 Reference value :  5.51670e-06
 Reference value :  5.51841e-06
 Reference value :  5.52182e-06
 Reference value :  5.52673e-06
 Reference value :  5.53654e-06
 Reference value :  5.55453e-06
 Reference value :  5.58738e-06
 Reference value :  5.65227e-06
 Reference value :  5.75010e-06
 Reference value :  5.75011e-06
 Reference value :  5.75013e-06
 Reference value :  5.75017e-06
 Reference value :  5.75020e-06
 Reference value :  5.75020e-06
 Reference value :  5.75020e-06
 Reference value :  5.75020e-06
 Reference value :  5.75021e-06
 Reference value :  5.75022e-06
 Reference value :  5.75023e-06
 Reference value :  5.75027e-06
 Reference value :  5.75033e-06
 Reference value :  5.75041e-06
 Reference value :  5.75058e-06
 Reference value :  5.75077e-06
 Reference value :  5.75108e-06
 Reference value :  5.75170e-06
 Reference value :  5.75233e-06
 Reference value :  5.75303e-06
 Reference value :  5.75376e-06
 Reference value :  5.75470e-06
 Reference value :  5.75573e-06
 Reference value :  5.75649e-06
 Reference value :  5.75737e-06
 Reference value :  5.75836e-06
 Reference value :  5.75928e-06
 Reference value :  5.76083e-06
 Reference value :  5.76226e-06
 Reference value :  5.76513e-06
 Reference value :  5.76896e-06
 Reference value :  5.77661e-06
 Reference value :  5.79192e-06
 Reference value :  5.82254e-06
 Reference value :  5.88377e-06
 Reference value :  6.00000e-06
 Reference value :  6.00001e-06
 Reference value :  6.00003e-06
 Reference value :  6.00007e-06
 Reference value :  6.00010e-06
 Reference value :  6.00010e-06
 Reference value :  6.00010e-06
 Reference value :  6.00010e-06
 Reference value :  6.00011e-06
 Reference value :  6.00012e-06
 Reference value :  6.00013e-06
 Reference value :  6.00017e-06
 Reference value :  6.00023e-06
 Reference value :  6.00036e-06
 Reference value :  6.00062e-06
 Reference value :  6.00109e-06
 Reference value :  6.00174e-06
 Reference value :  6.00246e-06
 Reference value :  6.00309e-06
 Reference value :  6.00385e-06
 Reference value :  6.00482e-06
 Reference value :  6.00571e-06
 Reference value :  6.00666e-06
 Reference value :  6.00758e-06
 Reference value :  6.00857e-06
 Reference value :  6.00958e-06
 Reference value :  6.01081e-06
 Reference value :  6.01258e-06
 Reference value :  6.01489e-06
 Reference value :  6.01893e-06
 Reference value :  6.02379e-06
 Reference value :  6.02715e-06
 Reference value :  6.02999e-06
 Reference value :  6.03269e-06
 Reference value :  6.03545e-06
 Reference value :  6.03831e-06
 Reference value :  6.04155e-06
 Reference value :  6.04494e-06
 Reference value :  6.05070e-06
 Reference value :  6.05706e-06
 Reference value :  6.06695e-06
 Reference value :  6.08080e-06
 Reference value :  6.10049e-06
 Reference value :  6.12901e-06
 Reference value :  6.17469e-06
 Reference value :  6.24031e-06
 Reference value :  6.25010e-06
 Reference value :  6.25011e-06
 Reference value :  6.25013e-06
 Reference value :  6.25017e-06
 Reference value :  6.25020e-06
 Reference value :  6.25020e-06
 Reference value :  6.25020e-06
 Reference value :  6.25020e-06
 Reference value :  6.25021e-06
 Reference value :  6.25022e-06
 Reference value :  6.25023e-06
 Reference value :  6.25027e-06
 Reference value :  6.25033e-06
 Reference value :  6.25041e-06
 Reference value :  6.25058e-06
 Reference value :  6.25076e-06
 Reference value :  6.25106e-06
 Reference value :  6.25165e-06
 Reference value :  6.25228e-06
 Reference value :  6.25298e-06
 Reference value :  6.25371e-06
 Reference value :  6.25463e-06
 Reference value :  6.25565e-06
 Reference value :  6.25691e-06
 Reference value :  6.25794e-06
 Reference value :  6.25903e-06
 Reference value :  6.26021e-06
 Reference value :  6.26203e-06
 Reference value :  6.26379e-06
 Reference value :  6.26730e-06
 Reference value :  6.27237e-06
 Reference value :  6.28116e-06
 Reference value :  6.29792e-06
 Reference value :  6.33077e-06
 Reference value :  6.39646e-06
 Reference value :  6.50000e-06
 Reference value :  6.50001e-06
 Reference value :  6.50003e-06
 Reference value :  6.50007e-06
 Reference value :  6.50010e-06
 Reference value :  6.50010e-06
 Reference value :  6.50010e-06
 Reference value :  6.50010e-06
 Reference value :  6.50011e-06
 Reference value :  6.50012e-06
 Reference value :  6.50013e-06
 Reference value :  6.50017e-06
 Reference value :  6.50023e-06
 Reference value :  6.50036e-06
 Reference value :  6.50062e-06
 Reference value :  6.50109e-06
 Reference value :  6.50174e-06
 Reference value :  6.50246e-06
 Reference value :  6.50308e-06
 Reference value :  6.50385e-06
 Reference value :  6.50480e-06
 Reference value :  6.50576e-06
 Reference value :  6.50669e-06
 Reference value :  6.50778e-06
 Reference value :  6.50892e-06
 Reference value :  6.51063e-06
 Reference value :  6.51243e-06
 Reference value :  6.51382e-06
 Reference value :  6.51541e-06
 Reference value :  6.51709e-06
 Reference value :  6.51895e-06
 Reference value :  6.52244e-06
 Reference value :  6.52719e-06
 Reference value :  6.53658e-06
 Reference value :  6.55267e-06
 Reference value :  6.58486e-06
 Reference value :  6.64777e-06
 Reference value :  6.75010e-06
 Reference value :  6.75011e-06
 Reference value :  6.75013e-06
 Reference value :  6.75017e-06
 Reference value :  6.75020e-06
 Reference value :  6.75020e-06
 Reference value :  6.75020e-06
 Reference value :  6.75020e-06
 Reference value :  6.75021e-06
 Reference value :  6.75022e-06
 Reference value :  6.75023e-06
 Reference value :  6.75027e-06
 Reference value :  6.75033e-06
 Reference value :  6.75041e-06
 Reference value :  6.75058e-06
 Reference value :  6.75080e-06
 Reference value :  6.75107e-06
 Reference value :  6.75163e-06
 Reference value :  6.75225e-06
 Reference value :  6.75292e-06
 Reference value :  6.75364e-06
 Reference value :  6.75457e-06
 Reference value :  6.75558e-06
 Reference value :  6.75681e-06
 Reference value :  6.75778e-06
 Reference value :  6.75883e-06
 Reference value :  6.75987e-06
 Reference value :  6.76094e-06
 Reference value :  6.76216e-06
 Reference value :  6.76461e-06
 Reference value :  6.76913e-06
 Reference value :  6.77591e-06
 Reference value :  6.78947e-06
 Reference value :  6.81658e-06
 Reference value :  6.87082e-06
 Reference value :  6.97928e-06
 Reference value :  7.00000e-06
 Reference value :  7.00001e-06
 Reference value :  7.00003e-06
 Reference value :  7.00007e-06
 Reference value :  7.00010e-06
 Reference value :  7.00010e-06
 Reference value :  7.00010e-06
 Reference value :  7.00010e-06
 Reference value :  7.00011e-06
 Reference value :  7.00012e-06
 Reference value :  7.00013e-06
 Reference value :  7.00017e-06
 Reference value :  7.00023e-06
 Reference value :  7.00036e-06
 Reference value :  7.00062e-06
 Reference value :  7.00109e-06
 Reference value :  7.00174e-06
 Reference value :  7.00246e-06
 Reference value :  7.00308e-06
 Reference value :  7.00385e-06
 Reference value :  7.00481e-06
 Reference value :  7.00571e-06
 Reference value :  7.00665e-06
 Reference value :  7.00742e-06
 Reference value :  7.00831e-06
 Reference value :  7.00920e-06
 Reference value :  7.01039e-06
 Reference value :  7.01181e-06
 Reference value :  7.01452e-06
 Reference value :  7.01733e-06
 Reference value :  7.02076e-06
 Reference value :  7.02368e-06
 Reference value :  7.02673e-06
 Reference value :  7.02897e-06
 Reference value :  7.03107e-06
 Reference value :  7.03302e-06
 Reference value :  7.03511e-06
 Reference value :  7.03754e-06
 Reference value :  7.04082e-06
 Reference value :  7.04519e-06
 Reference value :  7.05215e-06
 Reference value :  7.06351e-06
 Reference value :  7.07819e-06
 Reference value :  7.10548e-06
 Reference value :  7.14559e-06
 Reference value :  7.20865e-06
 Reference value :  7.25010e-06
 Reference value :  7.25011e-06
 Reference value :  7.25013e-06
 Reference value :  7.25017e-06
 Reference value :  7.25020e-06
 Reference value :  7.25020e-06
 Reference value :  7.25020e-06
 Reference value :  7.25020e-06
 Reference value :  7.25021e-06
 Reference value :  7.25022e-06
 Reference value :  7.25023e-06
 Reference value :  7.25027e-06
 Reference value :  7.25033e-06
 Reference value :  7.25042e-06
 Reference value :  7.25059e-06
 Reference value :  7.25077e-06
 Reference value :  7.25107e-06
 Reference value :  7.25167e-06
 Reference value :  7.25229e-06
 Reference value :  7.25299e-06
 Reference value :  7.25372e-06
 Reference value :  7.25465e-06
 Reference value :  7.25566e-06
 Reference value :  7.25661e-06
 Reference value :  7.25783e-06
 Reference value :  7.25894e-06
 Reference value :  7.26015e-06
 Reference value :  7.26190e-06
 Reference value :  7.26417e-06
 Reference value :  7.26812e-06
 Reference value :  7.27390e-06
 Reference value :  7.28545e-06
 Reference value :  7.30649e-06
 Reference value :  7.34855e-06
 Reference value :  7.40617e-06
 Reference value :  7.45990e-06
 Reference value :  7.50000e-06
 Reference value :  7.50001e-06
 Reference value :  7.50003e-06
 Reference value :  7.50007e-06
 Reference value :  7.50010e-06
 Reference value :  7.50010e-06
 Reference value :  7.50010e-06
 Reference value :  7.50010e-06
 Reference value :  7.50011e-06
 Reference value :  7.50012e-06
 Reference value :  7.50013e-06
 Reference value :  7.50017e-06
 Reference value :  7.50023e-06
 Reference value :  7.50036e-06
 Reference value :  7.50062e-06
 Reference value :  7.50109e-06
 Reference value :  7.50171e-06
 Reference value :  7.50245e-06
 Reference value :  7.50308e-06
 Reference value :  7.50385e-06
 Reference value :  7.50475e-06
 Reference value :  7.50573e-06
 Reference value :  7.50663e-06
 Reference value :  7.50781e-06
 Reference value :  7.50902e-06
 Reference value :  7.51079e-06
 Reference value :  7.51289e-06
 Reference value :  7.51460e-06
 Reference value :  7.51639e-06
 Reference value :  7.51865e-06
 Reference value :  7.52095e-06
 Reference value :  7.52489e-06
 Reference value :  7.53030e-06
 Reference value :  7.53934e-06
 Reference value :  7.55389e-06
 Reference value :  7.57936e-06
 Reference value :  7.62451e-06
 Reference value :  7.71217e-06
 Reference value :  7.75010e-06
 Reference value :  7.75011e-06
 Reference value :  7.75013e-06
 Reference value :  7.75017e-06
 Reference value :  7.75020e-06
 Reference value :  7.75020e-06
 Reference value :  7.75020e-06
 Reference value :  7.75020e-06
 Reference value :  7.75021e-06
 Reference value :  7.75022e-06
 Reference value :  7.75023e-06
 Reference value :  7.75027e-06
 Reference value :  7.75033e-06
 Reference value :  7.75042e-06
 Reference value :  7.75059e-06
 Reference value :  7.75082e-06
 Reference value :  7.75109e-06
 Reference value :  7.75165e-06
 Reference value :  7.75226e-06
 Reference value :  7.75292e-06
 Reference value :  7.75365e-06
 Reference value :  7.75457e-06
 Reference value :  7.75558e-06
 Reference value :  7.75656e-06
 Reference value :  7.75761e-06
 Reference value :  7.75856e-06
 Reference value :  7.75955e-06
 Reference value :  7.76068e-06
 Reference value :  7.76190e-06
 Reference value :  7.76327e-06
 Reference value :  7.76481e-06
 Reference value :  7.76718e-06
 Reference value :  7.76980e-06
 Reference value :  7.77409e-06
 Reference value :  7.78101e-06
 Reference value :  7.79367e-06
 Reference value :  7.81467e-06
 Reference value :  7.85202e-06
 Reference value :  7.90830e-06
 Reference value :  7.97012e-06
 Reference value :  8.00000e-06
 Reference value :  8.00001e-06
 Reference value :  8.00003e-06
 Reference value :  8.00007e-06
 Reference value :  8.00010e-06
 Reference value :  8.00010e-06
 Reference value :  8.00010e-06
 Reference value :  8.00010e-06
 Reference value :  8.00011e-06
 Reference value :  8.00012e-06
 Reference value :  8.00013e-06
 Reference value :  8.00017e-06
 Reference value :  8.00023e-06
 Reference value :  8.00036e-06
 Reference value :  8.00062e-06
 Reference value :  8.00109e-06
 Reference value :  8.00171e-06
 Reference value :  8.00245e-06
 Reference value :  8.00308e-06
 Reference value :  8.00385e-06
 Reference value :  8.00482e-06
 Reference value :  8.00575e-06
 Reference value :  8.00670e-06
 Reference value :  8.00747e-06
 Reference value :  8.00833e-06
 Reference value :  8.00928e-06
 Reference value :  8.01018e-06
 Reference value :  8.01174e-06
 Reference value :  8.01317e-06
 Reference value :  8.01455e-06
 Reference value :  8.01608e-06
 Reference value :  8.01730e-06
 Reference value :  8.01872e-06
 Reference value :  8.02029e-06
 Reference value :  8.02177e-06
 Reference value :  8.02349e-06
 Reference value :  8.02501e-06
 Reference value :  8.02681e-06
 Reference value :  8.02943e-06
 Reference value :  8.03467e-06
 Reference value :  8.03996e-06
 Reference value :  8.04387e-06
 Reference value :  8.04763e-06
 Reference value :  8.05232e-06
 Reference value :  8.05705e-06
 Reference value :  8.06216e-06
 Reference value :  8.07096e-06
 Reference value :  8.08218e-06
 Reference value :  8.09928e-06
 Reference value :  8.12570e-06
 Reference value :  8.16309e-06
 Reference value :  8.22318e-06
 Reference value :  8.25010e-06
 Reference value :  8.25011e-06
 Reference value :  8.25013e-06
 Reference value :  8.25017e-06
 Reference value :  8.25020e-06
 Reference value :  8.25020e-06
 Reference value :  8.25020e-06
 Reference value :  8.25020e-06
 Reference value :  8.25021e-06
 Reference value :  8.25022e-06
 Reference value :  8.25023e-06
 Reference value :  8.25027e-06
 Reference value :  8.25033e-06
 Reference value :  8.25047e-06
 Reference value :  8.25064e-06
 Reference value :  8.25085e-06
 Reference value :  8.25127e-06
 Reference value :  8.25193e-06
 Reference value :  8.25261e-06
 Reference value :  8.25331e-06
 Reference value :  8.25422e-06
 Reference value :  8.25545e-06
 Reference value :  8.25660e-06
 Reference value :  8.25789e-06
 Reference value :  8.25953e-06
 Reference value :  8.26158e-06
 Reference value :  8.26424e-06
 Reference value :  8.26764e-06
 Reference value :  8.27257e-06
 Reference value :  8.28242e-06
 Reference value :  8.29630e-06
 Reference value :  8.32407e-06
 Reference value :  8.37960e-06
 Reference value :  8.48311e-06
 Reference value :  8.50000e-06
No. of Data Rows : 1416
ngspice-44 done
