
Note: Compatibility modes selected: hs a


Circuit: ** sch_path: /home/audrey/cace/sar-adc-using-sky130-pdk/runs/run_2025-09-09_12-22-47/parameters/power/run_1/power_consumption.sch

option SCALE: Scale is set to 1e-06 for instance and model parameters
option SCALE: Scale is set to 1e-06 for instance and model parameters
option SCALE: Scale is set to 1e-06 for instance and model parameters
option SCALE: Scale is set to 1e-06 for instance and model parameters
Doing analysis at TEMP = 27.000000 and TNOM = 27.000000

Using KLU as Direct Linear Solver
 Reference value :  0.00000e+00
 Reference value :  1.00000e-12
 Reference value :  4.00000e-12
 Reference value :  1.60000e-11
 Reference value :  1.00000e-10
 Reference value :  1.19200e-10
 Reference value :  1.96000e-10
 Reference value :  2.98400e-10
 Reference value :  4.46701e-10
 Reference value :  7.06855e-10
 Reference value :  1.38418e-09
 Reference value :  2.17689e-09
 Reference value :  2.51841e-09
 Reference value :  2.91316e-09
 Reference value :  3.35166e-09
 Reference value :  3.77104e-09
 Reference value :  4.82688e-09
 Reference value :  6.18396e-09
 Reference value :  7.03095e-09
 Reference value :  7.83448e-09
 Reference value :  8.73171e-09
 Reference value :  9.69833e-09
 Reference value :  1.04211e-08
 Reference value :  1.17878e-08
 Reference value :  1.79227e-08
 Reference value :  2.67467e-08
 Reference value :  5.35197e-08
 Reference value :  1.76002e-07
 Reference value :  2.50110e-07
 Reference value :  2.50170e-07
 Reference value :  2.50200e-07
 Reference value :  2.50207e-07
 Reference value :  2.50246e-07
 Reference value :  2.50300e-07
 Reference value :  2.50522e-07
 Reference value :  2.50668e-07
 Reference value :  2.50926e-07
 Reference value :  2.51260e-07
 Reference value :  2.51642e-07
 Reference value :  2.52048e-07
 Reference value :  2.52613e-07
 Reference value :  2.53246e-07
 Reference value :  2.53833e-07
 Reference value :  2.54374e-07
 Reference value :  2.55002e-07
 Reference value :  2.55639e-07
 Reference value :  2.57954e-07
 Reference value :  2.66158e-07
 Reference value :  2.87426e-07
 Reference value :  3.55425e-07
 Reference value :  5.00010e-07
 Reference value :  5.00070e-07
 Reference value :  5.00108e-07
 Reference value :  5.00124e-07
 Reference value :  5.00220e-07
 Reference value :  5.00338e-07
 Reference value :  5.00827e-07
 Reference value :  5.01523e-07
 Reference value :  5.02321e-07
 Reference value :  5.02802e-07
 Reference value :  5.03323e-07
 Reference value :  5.03880e-07
 Reference value :  5.04609e-07
 Reference value :  5.05332e-07
 Reference value :  5.06435e-07
 Reference value :  5.07727e-07
 Reference value :  5.08778e-07
 Reference value :  5.11226e-07
 Reference value :  5.12506e-07
 Reference value :  5.13844e-07
 Reference value :  5.15628e-07
 Reference value :  5.17486e-07
 Reference value :  5.26012e-07
 Reference value :  5.34052e-07
 Reference value :  5.82292e-07
 Reference value :  6.46228e-07
 Reference value :  7.50100e-07
 Reference value :  7.50130e-07
 Reference value :  7.50200e-07
 Reference value :  7.50224e-07
 Reference value :  7.50256e-07
 Reference value :  7.50320e-07
 Reference value :  7.50448e-07
 Reference value :  7.50688e-07
 Reference value :  7.50986e-07
 Reference value :  7.51397e-07
 Reference value :  7.51860e-07
 Reference value :  7.52294e-07
 Reference value :  7.52988e-07
 Reference value :  7.53442e-07
 Reference value :  7.53966e-07
 Reference value :  7.54478e-07
 Reference value :  7.55022e-07
 Reference value :  7.55762e-07
 Reference value :  7.57438e-07
 Reference value :  7.59524e-07
 Reference value :  7.66978e-07
 Reference value :  7.73971e-07
 Reference value :  8.15929e-07
 Reference value :  9.83763e-07
 Reference value :  1.00001e-06
 Reference value :  1.00010e-06
 Reference value :  1.00016e-06
 Reference value :  1.00022e-06
 Reference value :  1.00083e-06
 Reference value :  1.00119e-06
 Reference value :  1.00157e-06
 Reference value :  1.00200e-06
 Reference value :  1.00289e-06
 Reference value :  1.00341e-06
 Reference value :  1.00388e-06
 Reference value :  1.00438e-06
 Reference value :  1.00482e-06
 Reference value :  1.00658e-06
 Reference value :  1.00749e-06
 Reference value :  1.00933e-06
 Reference value :  1.01025e-06
 Reference value :  1.01198e-06
 Reference value :  1.01273e-06
 Reference value :  1.01357e-06
 Reference value :  1.01626e-06
 Reference value :  1.01725e-06
 Reference value :  1.01900e-06
 Reference value :  1.02064e-06
 Reference value :  1.02392e-06
 Reference value :  1.02993e-06
 Reference value :  1.09100e-06
 Reference value :  1.21257e-06
 Reference value :  1.25011e-06
 Reference value :  1.25013e-06
 Reference value :  1.25020e-06
 Reference value :  1.25026e-06
 Reference value :  1.25032e-06
 Reference value :  1.25069e-06
 Reference value :  1.25098e-06
 Reference value :  1.25140e-06
 Reference value :  1.25230e-06
 Reference value :  1.25300e-06
 Reference value :  1.25344e-06
 Reference value :  1.25527e-06
 Reference value :  1.25885e-06
 Reference value :  1.26514e-06
 Reference value :  1.27225e-06
 Reference value :  1.28649e-06
 Reference value :  1.37189e-06
 Reference value :  1.50001e-06
 Reference value :  1.50007e-06
 Reference value :  1.50011e-06
 Reference value :  1.50022e-06
 Reference value :  1.50034e-06
 Reference value :  1.50052e-06
 Reference value :  1.50083e-06
 Reference value :  1.50119e-06
 Reference value :  1.50194e-06
 Reference value :  1.50234e-06
 Reference value :  1.50281e-06
 Reference value :  1.50332e-06
 Reference value :  1.50388e-06
 Reference value :  1.50463e-06
 Reference value :  1.50534e-06
 Reference value :  1.50597e-06
 Reference value :  1.50663e-06
 Reference value :  1.50748e-06
 Reference value :  1.50836e-06
 Reference value :  1.50923e-06
 Reference value :  1.51028e-06
 Reference value :  1.52277e-06
 Reference value :  1.53300e-06
 Reference value :  1.58529e-06
 Reference value :  1.75010e-06
 Reference value :  1.75013e-06
 Reference value :  1.75020e-06
 Reference value :  1.75022e-06
 Reference value :  1.75026e-06
 Reference value :  1.75032e-06
 Reference value :  1.75069e-06
 Reference value :  1.75140e-06
 Reference value :  1.75186e-06
 Reference value :  1.75230e-06
 Reference value :  1.75299e-06
 Reference value :  1.75344e-06
 Reference value :  1.75448e-06
 Reference value :  1.75502e-06
 Reference value :  1.75580e-06
 Reference value :  1.75662e-06
 Reference value :  1.75838e-06
 Reference value :  1.75967e-06
 Reference value :  1.76371e-06
 Reference value :  1.79057e-06
 Reference value :  1.88267e-06
 Reference value :  2.00001e-06
 Reference value :  2.00003e-06
 Reference value :  2.00010e-06
 Reference value :  2.00012e-06
 Reference value :  2.00016e-06
 Reference value :  2.00034e-06
 Reference value :  2.00083e-06
 Reference value :  2.00119e-06
 Reference value :  2.00157e-06
 Reference value :  2.00241e-06
 Reference value :  2.00289e-06
 Reference value :  2.00389e-06
 Reference value :  2.00438e-06
 Reference value :  2.00482e-06
 Reference value :  2.00532e-06
 Reference value :  2.00750e-06
 Reference value :  2.00843e-06
 Reference value :  2.01024e-06
 Reference value :  2.01121e-06
 Reference value :  2.01272e-06
 Reference value :  2.01443e-06
 Reference value :  2.01529e-06
 Reference value :  2.01723e-06
 Reference value :  2.02383e-06
 Reference value :  2.05466e-06
 Reference value :  2.08038e-06
 Reference value :  2.12025e-06
 Reference value :  2.25010e-06
 Reference value :  2.25017e-06
 Reference value :  2.25022e-06
 Reference value :  2.25032e-06
 Reference value :  2.25045e-06
 Reference value :  2.25069e-06
 Reference value :  2.25098e-06
 Reference value :  2.25140e-06
 Reference value :  2.25230e-06
 Reference value :  2.25344e-06
 Reference value :  2.25459e-06
 Reference value :  2.25527e-06
 Reference value :  2.25597e-06
 Reference value :  2.25738e-06
 Reference value :  2.25886e-06
 Reference value :  2.26514e-06
 Reference value :  2.27226e-06
 Reference value :  2.37183e-06
 Reference value :  2.50001e-06
 Reference value :  2.50010e-06
 Reference value :  2.50016e-06
 Reference value :  2.50034e-06
 Reference value :  2.50052e-06
 Reference value :  2.50119e-06
 Reference value :  2.50194e-06
 Reference value :  2.50281e-06
 Reference value :  2.50332e-06
 Reference value :  2.50388e-06
 Reference value :  2.50534e-06
 Reference value :  2.50597e-06
 Reference value :  2.50748e-06
 Reference value :  2.50836e-06
 Reference value :  2.51027e-06
 Reference value :  2.51366e-06
 Reference value :  2.51684e-06
 Reference value :  2.53266e-06
 Reference value :  2.54972e-06
 Reference value :  2.58383e-06
 Reference value :  2.75010e-06
 Reference value :  2.75011e-06
 Reference value :  2.75013e-06
 Reference value :  2.75020e-06
 Reference value :  2.75026e-06
 Reference value :  2.75032e-06
 Reference value :  2.75069e-06
 Reference value :  2.75140e-06
 Reference value :  2.75299e-06
 Reference value :  2.75344e-06
 Reference value :  2.75448e-06
 Reference value :  2.75502e-06
 Reference value :  2.75579e-06
 Reference value :  2.75661e-06
 Reference value :  2.75751e-06
 Reference value :  2.75837e-06
 Reference value :  2.75965e-06
 Reference value :  2.76107e-06
 Reference value :  2.76368e-06
 Reference value :  2.77505e-06
 Reference value :  2.79022e-06
 Reference value :  2.88122e-06
 Reference value :  3.00001e-06
 Reference value :  3.00007e-06
 Reference value :  3.00011e-06
 Reference value :  3.00012e-06
 Reference value :  3.00022e-06
 Reference value :  3.00052e-06
 Reference value :  3.00083e-06
 Reference value :  3.00119e-06
 Reference value :  3.00157e-06
 Reference value :  3.00241e-06
 Reference value :  3.00289e-06
 Reference value :  3.00341e-06
 Reference value :  3.00389e-06
 Reference value :  3.00438e-06
 Reference value :  3.00482e-06
 Reference value :  3.00659e-06
 Reference value :  3.00750e-06
 Reference value :  3.00844e-06
 Reference value :  3.00932e-06
 Reference value :  3.01023e-06
 Reference value :  3.01120e-06
 Reference value :  3.01196e-06
 Reference value :  3.01355e-06
 Reference value :  3.01443e-06
 Reference value :  3.01529e-06
 Reference value :  3.01623e-06
 Reference value :  3.01880e-06
 Reference value :  3.02373e-06
 Reference value :  3.02926e-06
 Reference value :  3.05438e-06
 Reference value :  3.07695e-06
 Reference value :  3.09733e-06
 Reference value :  3.12084e-06
 Reference value :  3.16329e-06
 Reference value :  3.18100e-06
 Reference value :  3.21470e-06
 Reference value :  3.25010e-06
 Reference value :  3.25011e-06
 Reference value :  3.25017e-06
 Reference value :  3.25020e-06
 Reference value :  3.25022e-06
 Reference value :  3.25032e-06
 Reference value :  3.25069e-06
 Reference value :  3.25140e-06
 Reference value :  3.25229e-06
 Reference value :  3.25299e-06
 Reference value :  3.25344e-06
 Reference value :  3.25459e-06
 Reference value :  3.25597e-06
 Reference value :  3.25738e-06
 Reference value :  3.25886e-06
 Reference value :  3.26514e-06
 Reference value :  3.28645e-06
 Reference value :  3.37167e-06
 Reference value :  3.42865e-06
 Reference value :  3.50000e-06
 Reference value :  3.50001e-06
 Reference value :  3.50003e-06
 Reference value :  3.50010e-06
 Reference value :  3.50012e-06
 Reference value :  3.50016e-06
 Reference value :  3.50034e-06
 Reference value :  3.50083e-06
 Reference value :  3.50153e-06
 Reference value :  3.50234e-06
 Reference value :  3.50281e-06
 Reference value :  3.50332e-06
 Reference value :  3.50388e-06
 Reference value :  3.50463e-06
 Reference value :  3.50534e-06
 Reference value :  3.50597e-06
 Reference value :  3.50663e-06
 Reference value :  3.50748e-06
 Reference value :  3.50836e-06
 Reference value :  3.50922e-06
 Reference value :  3.51027e-06
 Reference value :  3.51142e-06
 Reference value :  3.51364e-06
 Reference value :  3.51680e-06
 Reference value :  3.52252e-06
 Reference value :  3.53245e-06
 Reference value :  3.54929e-06
 Reference value :  3.58296e-06
 Reference value :  3.65031e-06
 Reference value :  3.75010e-06
 Reference value :  3.75011e-06
 Reference value :  3.75013e-06
 Reference value :  3.75017e-06
 Reference value :  3.75020e-06
 Reference value :  3.75021e-06
 Reference value :  3.75022e-06
 Reference value :  3.75026e-06
 Reference value :  3.75032e-06
 Reference value :  3.75045e-06
 Reference value :  3.75069e-06
 Reference value :  3.75098e-06
 Reference value :  3.75140e-06
 Reference value :  3.75186e-06
 Reference value :  3.75229e-06
 Reference value :  3.75299e-06
 Reference value :  3.75344e-06
 Reference value :  3.75396e-06
 Reference value :  3.75447e-06
 Reference value :  3.75502e-06
 Reference value :  3.75579e-06
 Reference value :  3.75661e-06
 Reference value :  3.75751e-06
 Reference value :  3.75836e-06
 Reference value :  3.75964e-06
 Reference value :  3.76106e-06
 Reference value :  3.76366e-06
 Reference value :  3.76743e-06
 Reference value :  3.77497e-06
 Reference value :  3.79004e-06
 Reference value :  3.82020e-06
 Reference value :  3.88050e-06
 Reference value :  4.00000e-06
 Reference value :  4.00001e-06
 Reference value :  4.00003e-06
 Reference value :  4.00007e-06
 Reference value :  4.00010e-06
 Reference value :  4.00011e-06
 Reference value :  4.00012e-06
 Reference value :  4.00016e-06
 Reference value :  4.00022e-06
 Reference value :  4.00034e-06
 Reference value :  4.00052e-06
 Reference value :  4.00083e-06
 Reference value :  4.00119e-06
 Reference value :  4.00157e-06
 Reference value :  4.00200e-06
 Reference value :  4.00241e-06
 Reference value :  4.00289e-06
 Reference value :  4.00341e-06
 Reference value :  4.00389e-06
 Reference value :  4.00439e-06
 Reference value :  4.00482e-06
 Reference value :  4.00532e-06
 Reference value :  4.00589e-06
 Reference value :  4.00660e-06
 Reference value :  4.00750e-06
 Reference value :  4.00844e-06
 Reference value :  4.00932e-06
 Reference value :  4.01023e-06
 Reference value :  4.01120e-06
 Reference value :  4.01196e-06
 Reference value :  4.01270e-06
 Reference value :  4.01354e-06
 Reference value :  4.01442e-06
 Reference value :  4.01528e-06
 Reference value :  4.01622e-06
 Reference value :  4.01719e-06
 Reference value :  4.01876e-06
 Reference value :  4.02040e-06
 Reference value :  4.02359e-06
 Reference value :  4.02721e-06
 Reference value :  4.03118e-06
 Reference value :  4.03609e-06
 Reference value :  4.04070e-06
 Reference value :  4.04394e-06
 Reference value :  4.04695e-06
 Reference value :  4.05012e-06
 Reference value :  4.05467e-06
 Reference value :  4.06067e-06
 Reference value :  4.06960e-06
 Reference value :  4.08130e-06
 Reference value :  4.09434e-06
 Reference value :  4.10648e-06
 Reference value :  4.11936e-06
 Reference value :  4.14510e-06
 Reference value :  4.17609e-06
 Reference value :  4.23066e-06
 Reference value :  4.25010e-06
 Reference value :  4.25011e-06
 Reference value :  4.25013e-06
 Reference value :  4.25017e-06
 Reference value :  4.25020e-06
 Reference value :  4.25021e-06
 Reference value :  4.25022e-06
 Reference value :  4.25026e-06
 Reference value :  4.25032e-06
 Reference value :  4.25045e-06
 Reference value :  4.25069e-06
 Reference value :  4.25098e-06
 Reference value :  4.25140e-06
 Reference value :  4.25186e-06
 Reference value :  4.25229e-06
 Reference value :  4.25299e-06
 Reference value :  4.25345e-06
 Reference value :  4.25398e-06
 Reference value :  4.25461e-06
 Reference value :  4.25523e-06
 Reference value :  4.25598e-06
 Reference value :  4.25741e-06
 Reference value :  4.25888e-06
 Reference value :  4.26162e-06
 Reference value :  4.26521e-06
 Reference value :  4.27238e-06
 Reference value :  4.28672e-06
 Reference value :  4.31540e-06
 Reference value :  4.37276e-06
 Reference value :  4.48748e-06
 Reference value :  4.50000e-06
 Reference value :  4.50001e-06
 Reference value :  4.50003e-06
 Reference value :  4.50007e-06
 Reference value :  4.50010e-06
 Reference value :  4.50011e-06
 Reference value :  4.50012e-06
 Reference value :  4.50016e-06
 Reference value :  4.50022e-06
 Reference value :  4.50034e-06
 Reference value :  4.50052e-06
 Reference value :  4.50083e-06
 Reference value :  4.50119e-06
 Reference value :  4.50158e-06
 Reference value :  4.50201e-06
 Reference value :  4.50242e-06
 Reference value :  4.50290e-06
 Reference value :  4.50342e-06
 Reference value :  4.50399e-06
 Reference value :  4.50474e-06
 Reference value :  4.50553e-06
 Reference value :  4.50616e-06
 Reference value :  4.50689e-06
 Reference value :  4.50771e-06
 Reference value :  4.50865e-06
 Reference value :  4.50956e-06
 Reference value :  4.51086e-06
 Reference value :  4.51250e-06
 Reference value :  4.51554e-06
 Reference value :  4.52061e-06
 Reference value :  4.52986e-06
 Reference value :  4.54796e-06
 Reference value :  4.58416e-06
 Reference value :  4.65656e-06
 Reference value :  4.75010e-06
 Reference value :  4.75011e-06
 Reference value :  4.75013e-06
 Reference value :  4.75017e-06
 Reference value :  4.75020e-06
 Reference value :  4.75021e-06
 Reference value :  4.75022e-06
 Reference value :  4.75026e-06
 Reference value :  4.75032e-06
 Reference value :  4.75045e-06
 Reference value :  4.75069e-06
 Reference value :  4.75098e-06
 Reference value :  4.75140e-06
 Reference value :  4.75186e-06
 Reference value :  4.75299e-06
 Reference value :  4.75344e-06
 Reference value :  4.75448e-06
 Reference value :  4.75579e-06
 Reference value :  4.76028e-06
 Reference value :  4.76989e-06
 Reference value :  4.85772e-06
 Reference value :  5.00001e-06
 Reference value :  5.00010e-06
 Reference value :  5.00012e-06
 Reference value :  5.00022e-06
 Reference value :  5.00052e-06
 Reference value :  5.00119e-06
 Reference value :  5.00158e-06
 Reference value :  5.00242e-06
 Reference value :  5.00289e-06
 Reference value :  5.00396e-06
 Reference value :  5.00500e-06
 Reference value :  5.00554e-06
 Reference value :  5.00709e-06
 Reference value :  5.00847e-06
 Reference value :  5.01120e-06
 Reference value :  5.01223e-06
 Reference value :  5.01428e-06
 Reference value :  5.01524e-06
 Reference value :  5.01625e-06
 Reference value :  5.01910e-06
 Reference value :  5.02868e-06
 Reference value :  5.04711e-06
 Reference value :  5.10230e-06
 Reference value :  5.25010e-06
 Reference value :  5.25013e-06
 Reference value :  5.25020e-06
 Reference value :  5.25022e-06
 Reference value :  5.25032e-06
 Reference value :  5.25069e-06
 Reference value :  5.25140e-06
 Reference value :  5.25229e-06
 Reference value :  5.25299e-06
 Reference value :  5.25345e-06
 Reference value :  5.25466e-06
 Reference value :  5.25607e-06
 Reference value :  5.25908e-06
 Reference value :  5.26574e-06
 Reference value :  5.28895e-06
 Reference value :  5.50000e-06
 Reference value :  5.50003e-06
 Reference value :  5.50010e-06
 Reference value :  5.50012e-06
 Reference value :  5.50022e-06
 Reference value :  5.50052e-06
 Reference value :  5.50083e-06
 Reference value :  5.50119e-06
 Reference value :  5.50158e-06
 Reference value :  5.50201e-06
 Reference value :  5.50290e-06
 Reference value :  5.50399e-06
 Reference value :  5.50552e-06
 Reference value :  5.50616e-06
 Reference value :  5.50771e-06
 Reference value :  5.50956e-06
 Reference value :  5.51249e-06
 Reference value :  5.52052e-06
 Reference value :  5.54736e-06
 Reference value :  5.65373e-06
 Reference value :  5.75011e-06
 Reference value :  5.75017e-06
 Reference value :  5.75021e-06
 Reference value :  5.75032e-06
 Reference value :  5.75069e-06
 Reference value :  5.75140e-06
 Reference value :  5.75299e-06
 Reference value :  5.75344e-06
 Reference value :  5.75397e-06
 Reference value :  5.75448e-06
 Reference value :  5.75579e-06
 Reference value :  5.76028e-06
 Reference value :  5.78242e-06
 Reference value :  5.95797e-06
 Reference value :  6.00003e-06
 Reference value :  6.00011e-06
 Reference value :  6.00022e-06
 Reference value :  6.00052e-06
 Reference value :  6.00083e-06
 Reference value :  6.00158e-06
 Reference value :  6.00242e-06
 Reference value :  6.00289e-06
 Reference value :  6.00396e-06
 Reference value :  6.00500e-06
 Reference value :  6.00631e-06
 Reference value :  6.00847e-06
 Reference value :  6.01120e-06
 Reference value :  6.01223e-06
 Reference value :  6.01428e-06
 Reference value :  6.01524e-06
 Reference value :  6.01736e-06
 Reference value :  6.02388e-06
 Reference value :  6.04589e-06
 Reference value :  6.12974e-06
 Reference value :  6.25010e-06
 Reference value :  6.25013e-06
 Reference value :  6.25020e-06
 Reference value :  6.25022e-06
 Reference value :  6.25045e-06
 Reference value :  6.25098e-06
 Reference value :  6.25140e-06
 Reference value :  6.25229e-06
 Reference value :  6.25299e-06
 Reference value :  6.25345e-06
 Reference value :  6.25466e-06
 Reference value :  6.25607e-06
 Reference value :  6.25908e-06
 Reference value :  6.27347e-06
 Reference value :  6.38168e-06
 Reference value :  6.50001e-06
 Reference value :  6.50007e-06
 Reference value :  6.50012e-06
 Reference value :  6.50022e-06
 Reference value :  6.50052e-06
 Reference value :  6.50119e-06
 Reference value :  6.50158e-06
 Reference value :  6.50242e-06
 Reference value :  6.50290e-06
 Reference value :  6.50342e-06
 Reference value :  6.50474e-06
 Reference value :  6.50616e-06
 Reference value :  6.50771e-06
 Reference value :  6.50955e-06
 Reference value :  6.52048e-06
 Reference value :  6.54707e-06
 Reference value :  6.75010e-06
 Reference value :  6.75013e-06
 Reference value :  6.75020e-06
 Reference value :  6.75022e-06
 Reference value :  6.75032e-06
 Reference value :  6.75069e-06
 Reference value :  6.75139e-06
 Reference value :  6.75229e-06
 Reference value :  6.75299e-06
 Reference value :  6.75344e-06
 Reference value :  6.75448e-06
 Reference value :  6.75579e-06
 Reference value :  6.75824e-06
 Reference value :  6.76987e-06
 Reference value :  6.85757e-06
 Reference value :  7.00001e-06
 Reference value :  7.00007e-06
 Reference value :  7.00010e-06
 Reference value :  7.00012e-06
 Reference value :  7.00022e-06
 Reference value :  7.00052e-06
 Reference value :  7.00119e-06
 Reference value :  7.00158e-06
 Reference value :  7.00242e-06
 Reference value :  7.00289e-06
 Reference value :  7.00396e-06
 Reference value :  7.00500e-06
 Reference value :  7.00631e-06
 Reference value :  7.00847e-06
 Reference value :  7.01120e-06
 Reference value :  7.01223e-06
 Reference value :  7.01428e-06
 Reference value :  7.01524e-06
 Reference value :  7.01736e-06
 Reference value :  7.02071e-06
 Reference value :  7.02868e-06
 Reference value :  7.04357e-06
 Reference value :  7.05431e-06
 Reference value :  7.06150e-06
 Reference value :  7.07986e-06
 Reference value :  7.11668e-06
 Reference value :  7.18016e-06
 Reference value :  7.25010e-06
 Reference value :  7.25013e-06
 Reference value :  7.25017e-06
 Reference value :  7.25022e-06
 Reference value :  7.25045e-06
 Reference value :  7.25098e-06
 Reference value :  7.25140e-06
 Reference value :  7.25229e-06
 Reference value :  7.25343e-06
 Reference value :  7.25394e-06
 Reference value :  7.25525e-06
 Reference value :  7.25729e-06
 Reference value :  7.26485e-06
 Reference value :  7.36751e-06
 Reference value :  7.50000e-06
 Reference value :  7.50003e-06
 Reference value :  7.50007e-06
 Reference value :  7.50011e-06
 Reference value :  7.50016e-06
 Reference value :  7.50034e-06
 Reference value :  7.50052e-06
 Reference value :  7.50083e-06
 Reference value :  7.50154e-06
 Reference value :  7.50235e-06
 Reference value :  7.50282e-06
 Reference value :  7.50333e-06
 Reference value :  7.50464e-06
 Reference value :  7.50597e-06
 Reference value :  7.50749e-06
 Reference value :  7.50924e-06
 Reference value :  7.51028e-06
 Reference value :  7.51669e-06
 Reference value :  7.54770e-06
 Reference value :  7.75010e-06
 Reference value :  7.75017e-06
 Reference value :  7.75022e-06
 Reference value :  7.75045e-06
 Reference value :  7.75139e-06
 Reference value :  7.75186e-06
 Reference value :  7.75229e-06
 Reference value :  7.75298e-06
 Reference value :  7.75344e-06
 Reference value :  7.75447e-06
 Reference value :  7.75579e-06
 Reference value :  7.75749e-06
 Reference value :  7.75962e-06
 Reference value :  7.77474e-06
 Reference value :  7.99698e-06
 Reference value :  8.00003e-06
 Reference value :  8.00011e-06
 Reference value :  8.00022e-06
 Reference value :  8.00083e-06
 Reference value :  8.00201e-06
 Reference value :  8.00290e-06
 Reference value :  8.00389e-06
 Reference value :  8.00484e-06
 Reference value :  8.00534e-06
 Reference value :  8.00663e-06
 Reference value :  8.00819e-06
 Reference value :  8.00902e-06
 Reference value :  8.01086e-06
 Reference value :  8.01379e-06
 Reference value :  8.01564e-06
 Reference value :  8.02438e-06
 Reference value :  8.03195e-06
 Reference value :  8.04711e-06
 Reference value :  8.09203e-06
 Reference value :  8.17552e-06
 Reference value :  8.23209e-06
 Reference value :  8.25010e-06
 Reference value :  8.25013e-06
 Reference value :  8.25020e-06
 Reference value :  8.25022e-06
 Reference value :  8.25032e-06
 Reference value :  8.25139e-06
 Reference value :  8.25298e-06
 Reference value :  8.25535e-06
 Reference value :  8.25919e-06
 Reference value :  8.29151e-06
 Reference value :  8.40069e-06
No. of Data Rows : 1224
ngspice-44 done
