
Note: Compatibility modes selected: hs a


Circuit: ** sch_path: /home/issa/cace/sar-adc-using-sky130-pdk/runs/run_2025-09-02_14-08-53/parameters/sndr/run_0/sndr_enob_fom.sch

option SCALE: Scale is set to 1e-06 for instance and model parameters
option SCALE: Scale is set to 1e-06 for instance and model parameters
option SCALE: Scale is set to 1e-06 for instance and model parameters
option SCALE: Scale is set to 1e-06 for instance and model parameters
Doing analysis at TEMP = 27.000000 and TNOM = 27.000000

Using KLU as Direct Linear Solver
Operating point simulation skipped by 'uic',
  now using transient initial conditions.
 Reference value :  1.00000e-12
 Reference value :  1.02386e-12
 Reference value :  1.07158e-12
 Reference value :  1.14210e-12
 Reference value :  1.22023e-12
 Reference value :  1.35921e-12
 Reference value :  1.57500e-12
 Reference value :  1.90701e-12
 Reference value :  2.54078e-12
 Reference value :  3.47521e-12
 Reference value :  4.89858e-12
 Reference value :  6.43067e-12
 Reference value :  8.78359e-12
 Reference value :  1.27800e-11
 Reference value :  1.81399e-11
 Reference value :  2.51068e-11
 Reference value :  3.40036e-11
 Reference value :  4.40514e-11
 Reference value :  5.96108e-11
 Reference value :  7.83609e-11
 Reference value :  1.00000e-10
 Reference value :  1.00419e-10
 Reference value :  1.01256e-10
 Reference value :  1.02930e-10
 Reference value :  1.06261e-10
 Reference value :  1.12923e-10
 Reference value :  1.26246e-10
 Reference value :  1.52893e-10
 Reference value :  1.90346e-10
 Reference value :  2.38031e-10
 Reference value :  3.06255e-10
 Reference value :  4.29176e-10
 Reference value :  6.60710e-10
 Reference value :  9.46329e-10
 Reference value :  1.37855e-09
 Reference value :  1.87148e-09
 Reference value :  2.63737e-09
 Reference value :  3.50251e-09
 Reference value :  4.24213e-09
 Reference value :  5.08842e-09
 Reference value :  5.89858e-09
 Reference value :  6.76229e-09
 Reference value :  7.68733e-09
 Reference value :  8.65556e-09
 Reference value :  9.60880e-09
 Reference value :  1.03406e-08
 Reference value :  1.11526e-08
 Reference value :  1.20424e-08
 Reference value :  1.30047e-08
 Reference value :  1.41798e-08
 Reference value :  1.54266e-08
 Reference value :  1.67964e-08
 Reference value :  1.82469e-08
 Reference value :  1.95552e-08
 Reference value :  2.10068e-08
 Reference value :  2.28114e-08
 Reference value :  2.41343e-08
 Reference value :  2.57689e-08
 Reference value :  2.76543e-08
 Reference value :  2.99954e-08
 Reference value :  3.25744e-08
 Reference value :  3.52503e-08
 Reference value :  4.06022e-08
 Reference value :  4.75726e-08
 Reference value :  6.15133e-08
 Reference value :  8.93948e-08
 Reference value :  1.23314e-07
 Reference value :  1.82417e-07
 Reference value :  2.50100e-07
 Reference value :  2.50110e-07
 Reference value :  2.50130e-07
 Reference value :  2.50170e-07
 Reference value :  2.50200e-07
 Reference value :  2.50201e-07
 Reference value :  2.50202e-07
 Reference value :  2.50204e-07
 Reference value :  2.50208e-07
 Reference value :  2.50216e-07
 Reference value :  2.50232e-07
 Reference value :  2.50265e-07
 Reference value :  2.50331e-07
 Reference value :  2.50412e-07
 Reference value :  2.50575e-07
 Reference value :  2.50741e-07
 Reference value :  2.51073e-07
 Reference value :  2.51459e-07
 Reference value :  2.52119e-07
 Reference value :  2.52784e-07
 Reference value :  2.53506e-07
 Reference value :  2.54463e-07
 Reference value :  2.55477e-07
 Reference value :  2.56511e-07
 Reference value :  2.57705e-07
 Reference value :  2.58900e-07
 Reference value :  2.60081e-07
 Reference value :  2.61405e-07
 Reference value :  2.63104e-07
 Reference value :  2.65830e-07
 Reference value :  2.69919e-07
 Reference value :  2.77674e-07
 Reference value :  2.90943e-07
 Reference value :  3.15635e-07
 Reference value :  3.60205e-07
 Reference value :  4.40910e-07
 Reference value :  5.00000e-07
 Reference value :  5.00010e-07
 Reference value :  5.00030e-07
 Reference value :  5.00070e-07
 Reference value :  5.00100e-07
 Reference value :  5.00101e-07
 Reference value :  5.00102e-07
 Reference value :  5.00104e-07
 Reference value :  5.00108e-07
 Reference value :  5.00116e-07
 Reference value :  5.00133e-07
 Reference value :  5.00166e-07
 Reference value :  5.00232e-07
 Reference value :  5.00364e-07
 Reference value :  5.00562e-07
 Reference value :  5.00958e-07
 Reference value :  5.01468e-07
 Reference value :  5.02004e-07
 Reference value :  5.02765e-07
 Reference value :  5.03571e-07
 Reference value :  5.04319e-07
 Reference value :  5.05131e-07
 Reference value :  5.06130e-07
 Reference value :  5.07181e-07
 Reference value :  5.08420e-07
 Reference value :  5.09735e-07
 Reference value :  5.11696e-07
 Reference value :  5.13521e-07
 Reference value :  5.15544e-07
 Reference value :  5.17484e-07
 Reference value :  5.19713e-07
 Reference value :  5.24171e-07
 Reference value :  5.27127e-07
 Reference value :  5.30599e-07
 Reference value :  5.34415e-07
 Reference value :  5.38455e-07
 Reference value :  5.44683e-07
 Reference value :  5.50634e-07
 Reference value :  5.60342e-07
 Reference value :  5.74367e-07
 Reference value :  6.02418e-07
 Reference value :  6.58520e-07
 Reference value :  7.50100e-07
 Reference value :  7.50110e-07
 Reference value :  7.50130e-07
 Reference value :  7.50170e-07
 Reference value :  7.50200e-07
 Reference value :  7.50201e-07
 Reference value :  7.50202e-07
 Reference value :  7.50204e-07
 Reference value :  7.50208e-07
 Reference value :  7.50216e-07
 Reference value :  7.50233e-07
 Reference value :  7.50266e-07
 Reference value :  7.50333e-07
 Reference value :  7.50467e-07
 Reference value :  7.50644e-07
 Reference value :  7.50914e-07
 Reference value :  7.51453e-07
 Reference value :  7.52099e-07
 Reference value :  7.52800e-07
 Reference value :  7.53530e-07
 Reference value :  7.54427e-07
 Reference value :  7.55525e-07
 Reference value :  7.56676e-07
 Reference value :  7.57701e-07
 Reference value :  7.58795e-07
 Reference value :  7.59790e-07
 Reference value :  7.60838e-07
 Reference value :  7.62265e-07
 Reference value :  7.63777e-07
 Reference value :  7.66801e-07
 Reference value :  7.71905e-07
 Reference value :  7.79805e-07
 Reference value :  7.95121e-07
 Reference value :  8.19590e-07
 Reference value :  8.63778e-07
 Reference value :  9.43784e-07
 Reference value :  1.00000e-06
 Reference value :  1.00001e-06
 Reference value :  1.00003e-06
 Reference value :  1.00007e-06
 Reference value :  1.00010e-06
 Reference value :  1.00010e-06
 Reference value :  1.00010e-06
 Reference value :  1.00010e-06
 Reference value :  1.00011e-06
 Reference value :  1.00012e-06
 Reference value :  1.00013e-06
 Reference value :  1.00017e-06
 Reference value :  1.00023e-06
 Reference value :  1.00036e-06
 Reference value :  1.00056e-06
 Reference value :  1.00096e-06
 Reference value :  1.00147e-06
 Reference value :  1.00201e-06
 Reference value :  1.00276e-06
 Reference value :  1.00346e-06
 Reference value :  1.00420e-06
 Reference value :  1.00499e-06
 Reference value :  1.00587e-06
 Reference value :  1.00691e-06
 Reference value :  1.00774e-06
 Reference value :  1.00867e-06
 Reference value :  1.00966e-06
 Reference value :  1.01084e-06
 Reference value :  1.01249e-06
 Reference value :  1.01493e-06
 Reference value :  1.01837e-06
 Reference value :  1.02257e-06
 Reference value :  1.02578e-06
 Reference value :  1.02864e-06
 Reference value :  1.03084e-06
 Reference value :  1.03288e-06
 Reference value :  1.03524e-06
 Reference value :  1.03751e-06
 Reference value :  1.04006e-06
 Reference value :  1.04371e-06
 Reference value :  1.04820e-06
 Reference value :  1.05481e-06
 Reference value :  1.06470e-06
 Reference value :  1.07948e-06
 Reference value :  1.10282e-06
 Reference value :  1.13825e-06
 Reference value :  1.18387e-06
 Reference value :  1.23309e-06
 Reference value :  1.25010e-06
 Reference value :  1.25011e-06
 Reference value :  1.25013e-06
 Reference value :  1.25017e-06
 Reference value :  1.25020e-06
 Reference value :  1.25020e-06
 Reference value :  1.25020e-06
 Reference value :  1.25020e-06
 Reference value :  1.25021e-06
 Reference value :  1.25022e-06
 Reference value :  1.25023e-06
 Reference value :  1.25027e-06
 Reference value :  1.25033e-06
 Reference value :  1.25047e-06
 Reference value :  1.25064e-06
 Reference value :  1.25091e-06
 Reference value :  1.25145e-06
 Reference value :  1.25210e-06
 Reference value :  1.25288e-06
 Reference value :  1.25358e-06
 Reference value :  1.25455e-06
 Reference value :  1.25561e-06
 Reference value :  1.25650e-06
 Reference value :  1.25755e-06
 Reference value :  1.25868e-06
 Reference value :  1.25983e-06
 Reference value :  1.26128e-06
 Reference value :  1.26392e-06
 Reference value :  1.26729e-06
 Reference value :  1.27244e-06
 Reference value :  1.28273e-06
 Reference value :  1.29892e-06
 Reference value :  1.33113e-06
 Reference value :  1.39553e-06
 Reference value :  1.50000e-06
 Reference value :  1.50001e-06
 Reference value :  1.50003e-06
 Reference value :  1.50007e-06
 Reference value :  1.50010e-06
 Reference value :  1.50010e-06
 Reference value :  1.50010e-06
 Reference value :  1.50010e-06
 Reference value :  1.50011e-06
 Reference value :  1.50012e-06
 Reference value :  1.50013e-06
 Reference value :  1.50017e-06
 Reference value :  1.50023e-06
 Reference value :  1.50036e-06
 Reference value :  1.50056e-06
 Reference value :  1.50095e-06
 Reference value :  1.50146e-06
 Reference value :  1.50200e-06
 Reference value :  1.50275e-06
 Reference value :  1.50344e-06
 Reference value :  1.50417e-06
 Reference value :  1.50501e-06
 Reference value :  1.50593e-06
 Reference value :  1.50702e-06
 Reference value :  1.50802e-06
 Reference value :  1.50959e-06
 Reference value :  1.51123e-06
 Reference value :  1.51320e-06
 Reference value :  1.51481e-06
 Reference value :  1.51652e-06
 Reference value :  1.51884e-06
 Reference value :  1.52121e-06
 Reference value :  1.52516e-06
 Reference value :  1.53040e-06
 Reference value :  1.53851e-06
 Reference value :  1.55146e-06
 Reference value :  1.57419e-06
 Reference value :  1.61698e-06
 Reference value :  1.69215e-06
 Reference value :  1.75010e-06
 Reference value :  1.75011e-06
 Reference value :  1.75013e-06
 Reference value :  1.75017e-06
 Reference value :  1.75020e-06
 Reference value :  1.75020e-06
 Reference value :  1.75020e-06
 Reference value :  1.75020e-06
 Reference value :  1.75021e-06
 Reference value :  1.75022e-06
 Reference value :  1.75023e-06
 Reference value :  1.75027e-06
 Reference value :  1.75033e-06
 Reference value :  1.75047e-06
 Reference value :  1.75064e-06
 Reference value :  1.75091e-06
 Reference value :  1.75145e-06
 Reference value :  1.75210e-06
 Reference value :  1.75288e-06
 Reference value :  1.75358e-06
 Reference value :  1.75454e-06
 Reference value :  1.75561e-06
 Reference value :  1.75653e-06
 Reference value :  1.75762e-06
 Reference value :  1.75853e-06
 Reference value :  1.75951e-06
 Reference value :  1.76064e-06
 Reference value :  1.76189e-06
 Reference value :  1.76338e-06
 Reference value :  1.76497e-06
 Reference value :  1.76741e-06
 Reference value :  1.77003e-06
 Reference value :  1.77439e-06
 Reference value :  1.78310e-06
 Reference value :  1.79620e-06
 Reference value :  1.82183e-06
 Reference value :  1.86514e-06
 Reference value :  1.94186e-06
 Reference value :  2.00000e-06
 Reference value :  2.00001e-06
 Reference value :  2.00003e-06
 Reference value :  2.00007e-06
 Reference value :  2.00010e-06
 Reference value :  2.00010e-06
 Reference value :  2.00010e-06
 Reference value :  2.00010e-06
 Reference value :  2.00011e-06
 Reference value :  2.00012e-06
 Reference value :  2.00013e-06
 Reference value :  2.00017e-06
 Reference value :  2.00023e-06
 Reference value :  2.00036e-06
 Reference value :  2.00056e-06
 Reference value :  2.00095e-06
 Reference value :  2.00146e-06
 Reference value :  2.00200e-06
 Reference value :  2.00275e-06
 Reference value :  2.00345e-06
 Reference value :  2.00418e-06
 Reference value :  2.00498e-06
 Reference value :  2.00586e-06
 Reference value :  2.00661e-06
 Reference value :  2.00746e-06
 Reference value :  2.00819e-06
 Reference value :  2.00904e-06
 Reference value :  2.01011e-06
 Reference value :  2.01122e-06
 Reference value :  2.01323e-06
 Reference value :  2.01537e-06
 Reference value :  2.01761e-06
 Reference value :  2.01983e-06
 Reference value :  2.02193e-06
 Reference value :  2.02420e-06
 Reference value :  2.02601e-06
 Reference value :  2.02744e-06
 Reference value :  2.02897e-06
 Reference value :  2.03070e-06
 Reference value :  2.03258e-06
 Reference value :  2.03463e-06
 Reference value :  2.03764e-06
 Reference value :  2.04132e-06
 Reference value :  2.04870e-06
 Reference value :  2.05773e-06
 Reference value :  2.07579e-06
 Reference value :  2.09279e-06
 Reference value :  2.10953e-06
 Reference value :  2.12434e-06
 Reference value :  2.13208e-06
 Reference value :  2.13956e-06
 Reference value :  2.14731e-06
 Reference value :  2.15916e-06
 Reference value :  2.17681e-06
 Reference value :  2.20043e-06
 Reference value :  2.23777e-06
 Reference value :  2.25010e-06
 Reference value :  2.25011e-06
 Reference value :  2.25013e-06
 Reference value :  2.25017e-06
 Reference value :  2.25020e-06
 Reference value :  2.25020e-06
 Reference value :  2.25020e-06
 Reference value :  2.25020e-06
 Reference value :  2.25021e-06
 Reference value :  2.25022e-06
 Reference value :  2.25023e-06
 Reference value :  2.25027e-06
 Reference value :  2.25033e-06
 Reference value :  2.25047e-06
 Reference value :  2.25064e-06
 Reference value :  2.25091e-06
 Reference value :  2.25145e-06
 Reference value :  2.25210e-06
 Reference value :  2.25288e-06
 Reference value :  2.25358e-06
 Reference value :  2.25454e-06
 Reference value :  2.25561e-06
 Reference value :  2.25661e-06
 Reference value :  2.25770e-06
 Reference value :  2.25880e-06
 Reference value :  2.26038e-06
 Reference value :  2.26246e-06
 Reference value :  2.26502e-06
 Reference value :  2.26891e-06
 Reference value :  2.27554e-06
 Reference value :  2.28650e-06
 Reference value :  2.30473e-06
 Reference value :  2.34117e-06
 Reference value :  2.40138e-06
 Reference value :  2.46680e-06
 Reference value :  2.50000e-06
 Reference value :  2.50001e-06
 Reference value :  2.50003e-06
 Reference value :  2.50007e-06
 Reference value :  2.50010e-06
 Reference value :  2.50010e-06
 Reference value :  2.50010e-06
 Reference value :  2.50010e-06
 Reference value :  2.50011e-06
 Reference value :  2.50012e-06
 Reference value :  2.50013e-06
 Reference value :  2.50017e-06
 Reference value :  2.50023e-06
 Reference value :  2.50036e-06
 Reference value :  2.50055e-06
 Reference value :  2.50091e-06
 Reference value :  2.50141e-06
 Reference value :  2.50194e-06
 Reference value :  2.50269e-06
 Reference value :  2.50338e-06
 Reference value :  2.50409e-06
 Reference value :  2.50487e-06
 Reference value :  2.50575e-06
 Reference value :  2.50669e-06
 Reference value :  2.50793e-06
 Reference value :  2.50945e-06
 Reference value :  2.51166e-06
 Reference value :  2.51317e-06
 Reference value :  2.51482e-06
 Reference value :  2.51648e-06
 Reference value :  2.51877e-06
 Reference value :  2.52127e-06
 Reference value :  2.52549e-06
 Reference value :  2.53148e-06
 Reference value :  2.54111e-06
 Reference value :  2.55985e-06
 Reference value :  2.58938e-06
 Reference value :  2.64379e-06
 Reference value :  2.73720e-06
 Reference value :  2.75010e-06
 Reference value :  2.75011e-06
 Reference value :  2.75013e-06
 Reference value :  2.75017e-06
 Reference value :  2.75020e-06
 Reference value :  2.75020e-06
 Reference value :  2.75020e-06
 Reference value :  2.75020e-06
 Reference value :  2.75021e-06
 Reference value :  2.75022e-06
 Reference value :  2.75023e-06
 Reference value :  2.75027e-06
 Reference value :  2.75033e-06
 Reference value :  2.75047e-06
 Reference value :  2.75064e-06
 Reference value :  2.75091e-06
 Reference value :  2.75145e-06
 Reference value :  2.75210e-06
 Reference value :  2.75287e-06
 Reference value :  2.75358e-06
 Reference value :  2.75455e-06
 Reference value :  2.75561e-06
 Reference value :  2.75658e-06
 Reference value :  2.75748e-06
 Reference value :  2.75844e-06
 Reference value :  2.75955e-06
 Reference value :  2.76080e-06
 Reference value :  2.76330e-06
 Reference value :  2.76642e-06
 Reference value :  2.77102e-06
 Reference value :  2.77933e-06
 Reference value :  2.79442e-06
 Reference value :  2.81964e-06
 Reference value :  2.87009e-06
 Reference value :  2.97098e-06
 Reference value :  3.00000e-06
 Reference value :  3.00001e-06
 Reference value :  3.00003e-06
 Reference value :  3.00007e-06
 Reference value :  3.00010e-06
 Reference value :  3.00010e-06
 Reference value :  3.00010e-06
 Reference value :  3.00010e-06
 Reference value :  3.00011e-06
 Reference value :  3.00012e-06
 Reference value :  3.00013e-06
 Reference value :  3.00017e-06
 Reference value :  3.00023e-06
 Reference value :  3.00036e-06
 Reference value :  3.00055e-06
 Reference value :  3.00091e-06
 Reference value :  3.00141e-06
 Reference value :  3.00194e-06
 Reference value :  3.00269e-06
 Reference value :  3.00338e-06
 Reference value :  3.00409e-06
 Reference value :  3.00487e-06
 Reference value :  3.00574e-06
 Reference value :  3.00666e-06
 Reference value :  3.00762e-06
 Reference value :  3.00843e-06
 Reference value :  3.00934e-06
 Reference value :  3.01049e-06
 Reference value :  3.01172e-06
 Reference value :  3.01403e-06
 Reference value :  3.01619e-06
 Reference value :  3.01901e-06
 Reference value :  3.02130e-06
 Reference value :  3.02337e-06
 Reference value :  3.02483e-06
 Reference value :  3.02636e-06
 Reference value :  3.02794e-06
 Reference value :  3.02955e-06
 Reference value :  3.03140e-06
 Reference value :  3.03465e-06
 Reference value :  3.03759e-06
 Reference value :  3.04346e-06
 Reference value :  3.05248e-06
 Reference value :  3.06638e-06
 Reference value :  3.08104e-06
 Reference value :  3.09500e-06
 Reference value :  3.10549e-06
 Reference value :  3.11530e-06
 Reference value :  3.12295e-06
 Reference value :  3.13126e-06
 Reference value :  3.13980e-06
 Reference value :  3.14827e-06
 Reference value :  3.16519e-06
 Reference value :  3.18352e-06
 Reference value :  3.21315e-06
 Reference value :  3.25010e-06
 Reference value :  3.25011e-06
 Reference value :  3.25013e-06
 Reference value :  3.25017e-06
 Reference value :  3.25020e-06
 Reference value :  3.25020e-06
 Reference value :  3.25020e-06
 Reference value :  3.25020e-06
 Reference value :  3.25021e-06
 Reference value :  3.25022e-06
 Reference value :  3.25023e-06
 Reference value :  3.25027e-06
 Reference value :  3.25033e-06
 Reference value :  3.25047e-06
 Reference value :  3.25064e-06
 Reference value :  3.25091e-06
 Reference value :  3.25145e-06
 Reference value :  3.25210e-06
 Reference value :  3.25287e-06
 Reference value :  3.25358e-06
 Reference value :  3.25455e-06
 Reference value :  3.25561e-06
 Reference value :  3.25658e-06
 Reference value :  3.25758e-06
 Reference value :  3.25864e-06
 Reference value :  3.26037e-06
 Reference value :  3.26199e-06
 Reference value :  3.26480e-06
 Reference value :  3.26828e-06
 Reference value :  3.27518e-06
 Reference value :  3.28622e-06
 Reference value :  3.30459e-06
 Reference value :  3.34133e-06
 Reference value :  3.41336e-06
 Reference value :  3.50000e-06
 Reference value :  3.50001e-06
 Reference value :  3.50003e-06
 Reference value :  3.50007e-06
 Reference value :  3.50010e-06
 Reference value :  3.50010e-06
 Reference value :  3.50010e-06
 Reference value :  3.50010e-06
 Reference value :  3.50011e-06
 Reference value :  3.50012e-06
 Reference value :  3.50013e-06
 Reference value :  3.50017e-06
 Reference value :  3.50023e-06
 Reference value :  3.50036e-06
 Reference value :  3.50055e-06
 Reference value :  3.50091e-06
 Reference value :  3.50141e-06
 Reference value :  3.50194e-06
 Reference value :  3.50269e-06
 Reference value :  3.50338e-06
 Reference value :  3.50410e-06
 Reference value :  3.50490e-06
 Reference value :  3.50579e-06
 Reference value :  3.50677e-06
 Reference value :  3.50802e-06
 Reference value :  3.50960e-06
 Reference value :  3.51111e-06
 Reference value :  3.51269e-06
 Reference value :  3.51430e-06
 Reference value :  3.51594e-06
 Reference value :  3.51763e-06
 Reference value :  3.51992e-06
 Reference value :  3.52231e-06
 Reference value :  3.52666e-06
 Reference value :  3.53290e-06
 Reference value :  3.54373e-06
 Reference value :  3.56329e-06
 Reference value :  3.59669e-06
 Reference value :  3.65923e-06
 Reference value :  3.75010e-06
 Reference value :  3.75011e-06
 Reference value :  3.75013e-06
 Reference value :  3.75017e-06
 Reference value :  3.75020e-06
 Reference value :  3.75020e-06
 Reference value :  3.75020e-06
 Reference value :  3.75020e-06
 Reference value :  3.75021e-06
 Reference value :  3.75022e-06
 Reference value :  3.75023e-06
 Reference value :  3.75027e-06
 Reference value :  3.75033e-06
 Reference value :  3.75047e-06
 Reference value :  3.75064e-06
 Reference value :  3.75091e-06
 Reference value :  3.75145e-06
 Reference value :  3.75210e-06
 Reference value :  3.75288e-06
 Reference value :  3.75358e-06
 Reference value :  3.75455e-06
 Reference value :  3.75561e-06
 Reference value :  3.75652e-06
 Reference value :  3.75749e-06
 Reference value :  3.75843e-06
 Reference value :  3.75947e-06
 Reference value :  3.76064e-06
 Reference value :  3.76203e-06
 Reference value :  3.76349e-06
 Reference value :  3.76603e-06
 Reference value :  3.76860e-06
 Reference value :  3.77228e-06
 Reference value :  3.77751e-06
 Reference value :  3.78797e-06
 Reference value :  3.80889e-06
 Reference value :  3.84893e-06
 Reference value :  3.90439e-06
 Reference value :  4.00000e-06
 Reference value :  4.00001e-06
 Reference value :  4.00003e-06
 Reference value :  4.00007e-06
 Reference value :  4.00010e-06
 Reference value :  4.00010e-06
 Reference value :  4.00010e-06
 Reference value :  4.00010e-06
 Reference value :  4.00011e-06
 Reference value :  4.00012e-06
 Reference value :  4.00013e-06
 Reference value :  4.00017e-06
 Reference value :  4.00023e-06
 Reference value :  4.00036e-06
 Reference value :  4.00055e-06
 Reference value :  4.00091e-06
 Reference value :  4.00141e-06
 Reference value :  4.00194e-06
 Reference value :  4.00269e-06
 Reference value :  4.00337e-06
 Reference value :  4.00409e-06
 Reference value :  4.00487e-06
 Reference value :  4.00575e-06
 Reference value :  4.00648e-06
 Reference value :  4.00727e-06
 Reference value :  4.00803e-06
 Reference value :  4.00889e-06
 Reference value :  4.00970e-06
 Reference value :  4.01096e-06
 Reference value :  4.01211e-06
 Reference value :  4.01420e-06
 Reference value :  4.01639e-06
 Reference value :  4.01811e-06
 Reference value :  4.01998e-06
 Reference value :  4.02218e-06
 Reference value :  4.02372e-06
 Reference value :  4.02515e-06
 Reference value :  4.02656e-06
 Reference value :  4.02795e-06
 Reference value :  4.02941e-06
 Reference value :  4.03119e-06
 Reference value :  4.03301e-06
 Reference value :  4.03584e-06
 Reference value :  4.03932e-06
 Reference value :  4.04627e-06
 Reference value :  4.05746e-06
 Reference value :  4.07732e-06
 Reference value :  4.10648e-06
 Reference value :  4.13426e-06
 Reference value :  4.16564e-06
 Reference value :  4.19416e-06
 Reference value :  4.25010e-06
 Reference value :  4.25011e-06
 Reference value :  4.25013e-06
 Reference value :  4.25017e-06
 Reference value :  4.25020e-06
 Reference value :  4.25020e-06
 Reference value :  4.25020e-06
 Reference value :  4.25020e-06
 Reference value :  4.25021e-06
 Reference value :  4.25022e-06
 Reference value :  4.25023e-06
 Reference value :  4.25027e-06
 Reference value :  4.25033e-06
 Reference value :  4.25042e-06
 Reference value :  4.25058e-06
 Reference value :  4.25077e-06
 Reference value :  4.25109e-06
 Reference value :  4.25172e-06
 Reference value :  4.25234e-06
 Reference value :  4.25304e-06
 Reference value :  4.25378e-06
 Reference value :  4.25472e-06
 Reference value :  4.25556e-06
 Reference value :  4.25651e-06
 Reference value :  4.25745e-06
 Reference value :  4.25841e-06
 Reference value :  4.25999e-06
 Reference value :  4.26157e-06
 Reference value :  4.26422e-06
 Reference value :  4.26765e-06
 Reference value :  4.27322e-06
 Reference value :  4.28435e-06
 Reference value :  4.30662e-06
 Reference value :  4.35115e-06
 Reference value :  4.44023e-06
 Reference value :  4.50000e-06
 Reference value :  4.50001e-06
 Reference value :  4.50003e-06
 Reference value :  4.50007e-06
 Reference value :  4.50010e-06
 Reference value :  4.50010e-06
 Reference value :  4.50010e-06
 Reference value :  4.50010e-06
 Reference value :  4.50011e-06
 Reference value :  4.50012e-06
 Reference value :  4.50013e-06
 Reference value :  4.50017e-06
 Reference value :  4.50023e-06
 Reference value :  4.50036e-06
 Reference value :  4.50063e-06
 Reference value :  4.50110e-06
 Reference value :  4.50176e-06
 Reference value :  4.50247e-06
 Reference value :  4.50308e-06
 Reference value :  4.50385e-06
 Reference value :  4.50469e-06
 Reference value :  4.50557e-06
 Reference value :  4.50645e-06
 Reference value :  4.50745e-06
 Reference value :  4.50876e-06
 Reference value :  4.51036e-06
 Reference value :  4.51156e-06
 Reference value :  4.51295e-06
 Reference value :  4.51454e-06
 Reference value :  4.51623e-06
 Reference value :  4.51796e-06
 Reference value :  4.52143e-06
 Reference value :  4.52837e-06
 Reference value :  4.54225e-06
 Reference value :  4.57001e-06
 Reference value :  4.62552e-06
 Reference value :  4.73655e-06
 Reference value :  4.75010e-06
 Reference value :  4.75011e-06
 Reference value :  4.75013e-06
 Reference value :  4.75017e-06
 Reference value :  4.75020e-06
 Reference value :  4.75020e-06
 Reference value :  4.75020e-06
 Reference value :  4.75020e-06
 Reference value :  4.75021e-06
 Reference value :  4.75022e-06
 Reference value :  4.75023e-06
 Reference value :  4.75027e-06
 Reference value :  4.75033e-06
 Reference value :  4.75042e-06
 Reference value :  4.75058e-06
 Reference value :  4.75077e-06
 Reference value :  4.75108e-06
 Reference value :  4.75171e-06
 Reference value :  4.75233e-06
 Reference value :  4.75303e-06
 Reference value :  4.75376e-06
 Reference value :  4.75471e-06
 Reference value :  4.75554e-06
 Reference value :  4.75648e-06
 Reference value :  4.75730e-06
 Reference value :  4.75819e-06
 Reference value :  4.75920e-06
 Reference value :  4.76037e-06
 Reference value :  4.76270e-06
 Reference value :  4.76564e-06
 Reference value :  4.76990e-06
 Reference value :  4.77711e-06
 Reference value :  4.79151e-06
 Reference value :  4.82033e-06
 Reference value :  4.87796e-06
 Reference value :  4.99322e-06
 Reference value :  5.00000e-06
 Reference value :  5.00001e-06
 Reference value :  5.00003e-06
 Reference value :  5.00007e-06
 Reference value :  5.00010e-06
 Reference value :  5.00010e-06
 Reference value :  5.00010e-06
 Reference value :  5.00010e-06
 Reference value :  5.00011e-06
 Reference value :  5.00012e-06
 Reference value :  5.00013e-06
 Reference value :  5.00017e-06
 Reference value :  5.00023e-06
 Reference value :  5.00036e-06
 Reference value :  5.00063e-06
 Reference value :  5.00109e-06
 Reference value :  5.00175e-06
 Reference value :  5.00247e-06
 Reference value :  5.00309e-06
 Reference value :  5.00385e-06
 Reference value :  5.00472e-06
 Reference value :  5.00561e-06
 Reference value :  5.00649e-06
 Reference value :  5.00729e-06
 Reference value :  5.00805e-06
 Reference value :  5.00889e-06
 Reference value :  5.01000e-06
 Reference value :  5.01117e-06
 Reference value :  5.01352e-06
 Reference value :  5.01591e-06
 Reference value :  5.01931e-06
 Reference value :  5.02283e-06
 Reference value :  5.02596e-06
 Reference value :  5.02838e-06
 Reference value :  5.03065e-06
 Reference value :  5.03316e-06
 Reference value :  5.03559e-06
 Reference value :  5.03846e-06
 Reference value :  5.04175e-06
 Reference value :  5.04716e-06
 Reference value :  5.05422e-06
 Reference value :  5.06591e-06
 Reference value :  5.08000e-06
 Reference value :  5.09491e-06
 Reference value :  5.11600e-06
 Reference value :  5.14395e-06
 Reference value :  5.17662e-06
 Reference value :  5.22095e-06
 Reference value :  5.25010e-06
 Reference value :  5.25011e-06
 Reference value :  5.25013e-06
 Reference value :  5.25017e-06
 Reference value :  5.25020e-06
 Reference value :  5.25020e-06
 Reference value :  5.25020e-06
 Reference value :  5.25020e-06
 Reference value :  5.25021e-06
 Reference value :  5.25022e-06
 Reference value :  5.25023e-06
 Reference value :  5.25027e-06
 Reference value :  5.25033e-06
 Reference value :  5.25042e-06
 Reference value :  5.25058e-06
 Reference value :  5.25076e-06
 Reference value :  5.25108e-06
 Reference value :  5.25172e-06
 Reference value :  5.25234e-06
 Reference value :  5.25305e-06
 Reference value :  5.25378e-06
 Reference value :  5.25473e-06
 Reference value :  5.25576e-06
 Reference value :  5.25651e-06
 Reference value :  5.25740e-06
 Reference value :  5.25836e-06
 Reference value :  5.25949e-06
 Reference value :  5.26069e-06
 Reference value :  5.26310e-06
 Reference value :  5.26621e-06
 Reference value :  5.27071e-06
 Reference value :  5.27930e-06
 Reference value :  5.29648e-06
 Reference value :  5.33084e-06
 Reference value :  5.39955e-06
 Reference value :  5.50000e-06
 Reference value :  5.50001e-06
 Reference value :  5.50003e-06
 Reference value :  5.50007e-06
 Reference value :  5.50010e-06
 Reference value :  5.50010e-06
 Reference value :  5.50010e-06
 Reference value :  5.50010e-06
 Reference value :  5.50011e-06
 Reference value :  5.50012e-06
 Reference value :  5.50013e-06
 Reference value :  5.50017e-06
 Reference value :  5.50023e-06
 Reference value :  5.50036e-06
 Reference value :  5.50063e-06
 Reference value :  5.50110e-06
 Reference value :  5.50176e-06
 Reference value :  5.50247e-06
 Reference value :  5.50308e-06
 Reference value :  5.50385e-06
 Reference value :  5.50481e-06
 Reference value :  5.50576e-06
 Reference value :  5.50670e-06
 Reference value :  5.50783e-06
 Reference value :  5.50918e-06
 Reference value :  5.51079e-06
 Reference value :  5.51224e-06
 Reference value :  5.51358e-06
 Reference value :  5.51506e-06
 Reference value :  5.51672e-06
 Reference value :  5.51843e-06
 Reference value :  5.52184e-06
 Reference value :  5.52673e-06
 Reference value :  5.53647e-06
 Reference value :  5.55467e-06
 Reference value :  5.58768e-06
 Reference value :  5.65365e-06
 Reference value :  5.75010e-06
 Reference value :  5.75011e-06
 Reference value :  5.75013e-06
 Reference value :  5.75017e-06
 Reference value :  5.75020e-06
 Reference value :  5.75020e-06
 Reference value :  5.75020e-06
 Reference value :  5.75020e-06
 Reference value :  5.75021e-06
 Reference value :  5.75022e-06
 Reference value :  5.75023e-06
 Reference value :  5.75027e-06
 Reference value :  5.75033e-06
 Reference value :  5.75041e-06
 Reference value :  5.75058e-06
 Reference value :  5.75077e-06
 Reference value :  5.75108e-06
 Reference value :  5.75170e-06
 Reference value :  5.75233e-06
 Reference value :  5.75303e-06
 Reference value :  5.75376e-06
 Reference value :  5.75470e-06
 Reference value :  5.75573e-06
 Reference value :  5.75648e-06
 Reference value :  5.75737e-06
 Reference value :  5.75836e-06
 Reference value :  5.75929e-06
 Reference value :  5.76068e-06
 Reference value :  5.76212e-06
 Reference value :  5.76498e-06
 Reference value :  5.76876e-06
 Reference value :  5.77632e-06
 Reference value :  5.79144e-06
 Reference value :  5.81858e-06
 Reference value :  5.87286e-06
 Reference value :  5.98142e-06
 Reference value :  6.00000e-06
 Reference value :  6.00001e-06
 Reference value :  6.00003e-06
 Reference value :  6.00007e-06
 Reference value :  6.00010e-06
 Reference value :  6.00010e-06
 Reference value :  6.00010e-06
 Reference value :  6.00010e-06
 Reference value :  6.00011e-06
 Reference value :  6.00012e-06
 Reference value :  6.00013e-06
 Reference value :  6.00017e-06
 Reference value :  6.00023e-06
 Reference value :  6.00036e-06
 Reference value :  6.00063e-06
 Reference value :  6.00109e-06
 Reference value :  6.00175e-06
 Reference value :  6.00247e-06
 Reference value :  6.00309e-06
 Reference value :  6.00385e-06
 Reference value :  6.00482e-06
 Reference value :  6.00571e-06
 Reference value :  6.00666e-06
 Reference value :  6.00758e-06
 Reference value :  6.00856e-06
 Reference value :  6.00957e-06
 Reference value :  6.01080e-06
 Reference value :  6.01257e-06
 Reference value :  6.01488e-06
 Reference value :  6.01891e-06
 Reference value :  6.02380e-06
 Reference value :  6.02718e-06
 Reference value :  6.03005e-06
 Reference value :  6.03277e-06
 Reference value :  6.03554e-06
 Reference value :  6.03844e-06
 Reference value :  6.04162e-06
 Reference value :  6.04509e-06
 Reference value :  6.05074e-06
 Reference value :  6.05707e-06
 Reference value :  6.06589e-06
 Reference value :  6.07962e-06
 Reference value :  6.09775e-06
 Reference value :  6.12646e-06
 Reference value :  6.16961e-06
 Reference value :  6.23357e-06
 Reference value :  6.25010e-06
 Reference value :  6.25011e-06
 Reference value :  6.25013e-06
 Reference value :  6.25017e-06
 Reference value :  6.25020e-06
 Reference value :  6.25020e-06
 Reference value :  6.25020e-06
 Reference value :  6.25020e-06
 Reference value :  6.25021e-06
 Reference value :  6.25022e-06
 Reference value :  6.25023e-06
 Reference value :  6.25027e-06
 Reference value :  6.25033e-06
 Reference value :  6.25041e-06
 Reference value :  6.25058e-06
 Reference value :  6.25076e-06
 Reference value :  6.25106e-06
 Reference value :  6.25165e-06
 Reference value :  6.25228e-06
 Reference value :  6.25298e-06
 Reference value :  6.25371e-06
 Reference value :  6.25463e-06
 Reference value :  6.25565e-06
 Reference value :  6.25691e-06
 Reference value :  6.25794e-06
 Reference value :  6.25903e-06
 Reference value :  6.26021e-06
 Reference value :  6.26203e-06
 Reference value :  6.26379e-06
 Reference value :  6.26731e-06
 Reference value :  6.27238e-06
 Reference value :  6.28118e-06
 Reference value :  6.29794e-06
 Reference value :  6.33077e-06
 Reference value :  6.39643e-06
 Reference value :  6.50000e-06
 Reference value :  6.50001e-06
 Reference value :  6.50003e-06
 Reference value :  6.50007e-06
 Reference value :  6.50010e-06
 Reference value :  6.50010e-06
 Reference value :  6.50010e-06
 Reference value :  6.50010e-06
 Reference value :  6.50011e-06
 Reference value :  6.50012e-06
 Reference value :  6.50013e-06
 Reference value :  6.50017e-06
 Reference value :  6.50023e-06
 Reference value :  6.50036e-06
 Reference value :  6.50063e-06
 Reference value :  6.50110e-06
 Reference value :  6.50176e-06
 Reference value :  6.50246e-06
 Reference value :  6.50308e-06
 Reference value :  6.50385e-06
 Reference value :  6.50480e-06
 Reference value :  6.50576e-06
 Reference value :  6.50669e-06
 Reference value :  6.50779e-06
 Reference value :  6.50893e-06
 Reference value :  6.51065e-06
 Reference value :  6.51245e-06
 Reference value :  6.51385e-06
 Reference value :  6.51544e-06
 Reference value :  6.51713e-06
 Reference value :  6.51900e-06
 Reference value :  6.52249e-06
 Reference value :  6.52726e-06
 Reference value :  6.53657e-06
 Reference value :  6.55247e-06
 Reference value :  6.58425e-06
 Reference value :  6.64582e-06
 Reference value :  6.75010e-06
 Reference value :  6.75011e-06
 Reference value :  6.75013e-06
 Reference value :  6.75017e-06
 Reference value :  6.75020e-06
 Reference value :  6.75020e-06
 Reference value :  6.75020e-06
 Reference value :  6.75020e-06
 Reference value :  6.75021e-06
 Reference value :  6.75022e-06
 Reference value :  6.75023e-06
 Reference value :  6.75027e-06
 Reference value :  6.75033e-06
 Reference value :  6.75041e-06
 Reference value :  6.75058e-06
 Reference value :  6.75080e-06
 Reference value :  6.75107e-06
 Reference value :  6.75163e-06
 Reference value :  6.75225e-06
 Reference value :  6.75292e-06
 Reference value :  6.75364e-06
 Reference value :  6.75457e-06
 Reference value :  6.75558e-06
 Reference value :  6.75681e-06
 Reference value :  6.75778e-06
 Reference value :  6.75883e-06
 Reference value :  6.75987e-06
 Reference value :  6.76094e-06
 Reference value :  6.76216e-06
 Reference value :  6.76461e-06
 Reference value :  6.76913e-06
 Reference value :  6.77591e-06
 Reference value :  6.78947e-06
 Reference value :  6.81658e-06
 Reference value :  6.87081e-06
 Reference value :  6.97927e-06
 Reference value :  7.00000e-06
 Reference value :  7.00001e-06
 Reference value :  7.00003e-06
 Reference value :  7.00007e-06
 Reference value :  7.00010e-06
 Reference value :  7.00010e-06
 Reference value :  7.00010e-06
 Reference value :  7.00010e-06
 Reference value :  7.00011e-06
 Reference value :  7.00012e-06
 Reference value :  7.00013e-06
 Reference value :  7.00017e-06
 Reference value :  7.00023e-06
 Reference value :  7.00036e-06
 Reference value :  7.00063e-06
 Reference value :  7.00109e-06
 Reference value :  7.00175e-06
 Reference value :  7.00246e-06
 Reference value :  7.00309e-06
 Reference value :  7.00385e-06
 Reference value :  7.00481e-06
 Reference value :  7.00571e-06
 Reference value :  7.00665e-06
 Reference value :  7.00743e-06
 Reference value :  7.00832e-06
 Reference value :  7.00921e-06
 Reference value :  7.01040e-06
 Reference value :  7.01183e-06
 Reference value :  7.01455e-06
 Reference value :  7.01739e-06
 Reference value :  7.02087e-06
 Reference value :  7.02379e-06
 Reference value :  7.02683e-06
 Reference value :  7.02906e-06
 Reference value :  7.03115e-06
 Reference value :  7.03317e-06
 Reference value :  7.03527e-06
 Reference value :  7.03773e-06
 Reference value :  7.04094e-06
 Reference value :  7.04456e-06
 Reference value :  7.05074e-06
 Reference value :  7.05936e-06
 Reference value :  7.07350e-06
 Reference value :  7.09599e-06
 Reference value :  7.13124e-06
 Reference value :  7.18595e-06
 Reference value :  7.25010e-06
 Reference value :  7.25011e-06
 Reference value :  7.25013e-06
 Reference value :  7.25017e-06
 Reference value :  7.25020e-06
 Reference value :  7.25020e-06
 Reference value :  7.25020e-06
 Reference value :  7.25020e-06
 Reference value :  7.25021e-06
 Reference value :  7.25022e-06
 Reference value :  7.25023e-06
 Reference value :  7.25027e-06
 Reference value :  7.25033e-06
 Reference value :  7.25042e-06
 Reference value :  7.25059e-06
 Reference value :  7.25077e-06
 Reference value :  7.25107e-06
 Reference value :  7.25167e-06
 Reference value :  7.25229e-06
 Reference value :  7.25299e-06
 Reference value :  7.25372e-06
 Reference value :  7.25464e-06
 Reference value :  7.25566e-06
 Reference value :  7.25661e-06
 Reference value :  7.25783e-06
 Reference value :  7.25894e-06
 Reference value :  7.26017e-06
 Reference value :  7.26193e-06
 Reference value :  7.26424e-06
 Reference value :  7.26818e-06
 Reference value :  7.27406e-06
 Reference value :  7.28581e-06
 Reference value :  7.30695e-06
 Reference value :  7.34865e-06
 Reference value :  7.43207e-06
 Reference value :  7.50000e-06
 Reference value :  7.50001e-06
 Reference value :  7.50003e-06
 Reference value :  7.50007e-06
 Reference value :  7.50010e-06
 Reference value :  7.50010e-06
 Reference value :  7.50010e-06
 Reference value :  7.50010e-06
 Reference value :  7.50011e-06
 Reference value :  7.50012e-06
 Reference value :  7.50013e-06
 Reference value :  7.50017e-06
 Reference value :  7.50023e-06
 Reference value :  7.50036e-06
 Reference value :  7.50063e-06
 Reference value :  7.50110e-06
 Reference value :  7.50172e-06
 Reference value :  7.50245e-06
 Reference value :  7.50308e-06
 Reference value :  7.50384e-06
 Reference value :  7.50479e-06
 Reference value :  7.50575e-06
 Reference value :  7.50668e-06
 Reference value :  7.50785e-06
 Reference value :  7.50905e-06
 Reference value :  7.51094e-06
 Reference value :  7.51293e-06
 Reference value :  7.51465e-06
 Reference value :  7.51645e-06
 Reference value :  7.51876e-06
 Reference value :  7.52119e-06
 Reference value :  7.52529e-06
 Reference value :  7.53098e-06
 Reference value :  7.54045e-06
 Reference value :  7.55667e-06
 Reference value :  7.58302e-06
 Reference value :  7.63122e-06
 Reference value :  7.71760e-06
 Reference value :  7.75010e-06
 Reference value :  7.75011e-06
 Reference value :  7.75013e-06
 Reference value :  7.75017e-06
 Reference value :  7.75020e-06
 Reference value :  7.75020e-06
 Reference value :  7.75020e-06
 Reference value :  7.75020e-06
 Reference value :  7.75021e-06
 Reference value :  7.75022e-06
 Reference value :  7.75023e-06
 Reference value :  7.75027e-06
 Reference value :  7.75033e-06
 Reference value :  7.75042e-06
 Reference value :  7.75059e-06
 Reference value :  7.75082e-06
 Reference value :  7.75109e-06
 Reference value :  7.75165e-06
 Reference value :  7.75226e-06
 Reference value :  7.75292e-06
 Reference value :  7.75365e-06
 Reference value :  7.75457e-06
 Reference value :  7.75558e-06
 Reference value :  7.75656e-06
 Reference value :  7.75762e-06
 Reference value :  7.75857e-06
 Reference value :  7.75956e-06
 Reference value :  7.76063e-06
 Reference value :  7.76187e-06
 Reference value :  7.76435e-06
 Reference value :  7.76851e-06
 Reference value :  7.77492e-06
 Reference value :  7.78775e-06
 Reference value :  7.81342e-06
 Reference value :  7.86474e-06
 Reference value :  7.96738e-06
 Reference value :  8.00000e-06
 Reference value :  8.00001e-06
 Reference value :  8.00003e-06
 Reference value :  8.00007e-06
 Reference value :  8.00010e-06
 Reference value :  8.00010e-06
 Reference value :  8.00010e-06
 Reference value :  8.00010e-06
 Reference value :  8.00011e-06
 Reference value :  8.00012e-06
 Reference value :  8.00013e-06
 Reference value :  8.00017e-06
 Reference value :  8.00023e-06
 Reference value :  8.00036e-06
 Reference value :  8.00063e-06
 Reference value :  8.00110e-06
 Reference value :  8.00172e-06
 Reference value :  8.00245e-06
 Reference value :  8.00308e-06
 Reference value :  8.00385e-06
 Reference value :  8.00482e-06
 Reference value :  8.00575e-06
 Reference value :  8.00670e-06
 Reference value :  8.00757e-06
 Reference value :  8.00851e-06
 Reference value :  8.00954e-06
 Reference value :  8.01070e-06
 Reference value :  8.01243e-06
 Reference value :  8.01396e-06
 Reference value :  8.01557e-06
 Reference value :  8.01723e-06
 Reference value :  8.01905e-06
 Reference value :  8.02267e-06
 Reference value :  8.02810e-06
 Reference value :  8.03697e-06
 Reference value :  8.05471e-06
 Reference value :  8.09018e-06
 Reference value :  8.16113e-06
 Reference value :  8.25010e-06
 Reference value :  8.25011e-06
 Reference value :  8.25013e-06
 Reference value :  8.25017e-06
 Reference value :  8.25020e-06
 Reference value :  8.25020e-06
 Reference value :  8.25020e-06
 Reference value :  8.25020e-06
 Reference value :  8.25021e-06
 Reference value :  8.25022e-06
 Reference value :  8.25023e-06
 Reference value :  8.25027e-06
 Reference value :  8.25033e-06
 Reference value :  8.25047e-06
 Reference value :  8.25064e-06
 Reference value :  8.25085e-06
 Reference value :  8.25127e-06
 Reference value :  8.25193e-06
 Reference value :  8.25261e-06
 Reference value :  8.25331e-06
 Reference value :  8.25422e-06
 Reference value :  8.25545e-06
 Reference value :  8.25660e-06
 Reference value :  8.25789e-06
 Reference value :  8.25953e-06
 Reference value :  8.26158e-06
 Reference value :  8.26424e-06
 Reference value :  8.26765e-06
 Reference value :  8.27258e-06
 Reference value :  8.28243e-06
 Reference value :  8.29638e-06
 Reference value :  8.32426e-06
 Reference value :  8.38002e-06
 Reference value :  8.48579e-06
 Reference value :  8.50000e-06
 Reference value :  8.50001e-06
 Reference value :  8.50003e-06
 Reference value :  8.50007e-06
 Reference value :  8.50010e-06
 Reference value :  8.50010e-06
 Reference value :  8.50010e-06
 Reference value :  8.50010e-06
 Reference value :  8.50011e-06
 Reference value :  8.50012e-06
 Reference value :  8.50013e-06
 Reference value :  8.50017e-06
 Reference value :  8.50023e-06
 Reference value :  8.50036e-06
 Reference value :  8.50063e-06
 Reference value :  8.50108e-06
 Reference value :  8.50175e-06
 Reference value :  8.50253e-06
 Reference value :  8.50323e-06
 Reference value :  8.50398e-06
 Reference value :  8.50475e-06
 Reference value :  8.50560e-06
 Reference value :  8.50655e-06
 Reference value :  8.50786e-06
 Reference value :  8.50877e-06
 Reference value :  8.50982e-06
 Reference value :  8.51108e-06
 Reference value :  8.51245e-06
 Reference value :  8.51518e-06
 Reference value :  8.51830e-06
 Reference value :  8.52453e-06
 Reference value :  8.53632e-06
 Reference value :  8.53763e-06
 Reference value :  8.54026e-06
 Reference value :  8.54550e-06
 Reference value :  8.55026e-06
 Reference value :  8.55414e-06
 Reference value :  8.55756e-06
 Reference value :  8.56062e-06
 Reference value :  8.56382e-06
 Reference value :  8.56601e-06
 Reference value :  8.56805e-06
 Reference value :  8.56989e-06
 Reference value :  8.57182e-06
 Reference value :  8.57407e-06
 Reference value :  8.57665e-06
 Reference value :  8.58049e-06
 Reference value :  8.58497e-06
 Reference value :  8.59108e-06
 Reference value :  8.60081e-06
 Reference value :  8.61144e-06
 Reference value :  8.62802e-06
 Reference value :  8.64554e-06
 Reference value :  8.67664e-06
 Reference value :  8.70842e-06
 Reference value :  8.75010e-06
 Reference value :  8.75011e-06
 Reference value :  8.75013e-06
 Reference value :  8.75017e-06
 Reference value :  8.75020e-06
 Reference value :  8.75020e-06
 Reference value :  8.75020e-06
 Reference value :  8.75020e-06
 Reference value :  8.75021e-06
 Reference value :  8.75022e-06
 Reference value :  8.75023e-06
 Reference value :  8.75027e-06
 Reference value :  8.75033e-06
 Reference value :  8.75047e-06
 Reference value :  8.75064e-06
 Reference value :  8.75091e-06
 Reference value :  8.75145e-06
 Reference value :  8.75211e-06
 Reference value :  8.75281e-06
 Reference value :  8.75354e-06
 Reference value :  8.75447e-06
 Reference value :  8.75552e-06
 Reference value :  8.75660e-06
 Reference value :  8.75765e-06
 Reference value :  8.75876e-06
 Reference value :  8.76010e-06
 Reference value :  8.76133e-06
 Reference value :  8.76285e-06
 Reference value :  8.76591e-06
 Reference value :  8.76989e-06
 Reference value :  8.77734e-06
 Reference value :  8.78891e-06
 Reference value :  8.80810e-06
 Reference value :  8.84082e-06
 Reference value :  8.90313e-06
 Reference value :  9.00000e-06
 Reference value :  9.00001e-06
 Reference value :  9.00003e-06
 Reference value :  9.00007e-06
 Reference value :  9.00010e-06
 Reference value :  9.00010e-06
 Reference value :  9.00010e-06
 Reference value :  9.00010e-06
 Reference value :  9.00011e-06
 Reference value :  9.00012e-06
 Reference value :  9.00013e-06
 Reference value :  9.00017e-06
 Reference value :  9.00023e-06
 Reference value :  9.00036e-06
 Reference value :  9.00056e-06
 Reference value :  9.00096e-06
 Reference value :  9.00147e-06
 Reference value :  9.00200e-06
 Reference value :  9.00276e-06
 Reference value :  9.00357e-06
 Reference value :  9.00432e-06
 Reference value :  9.00513e-06
 Reference value :  9.00613e-06
 Reference value :  9.00713e-06
 Reference value :  9.00839e-06
 Reference value :  9.00961e-06
 Reference value :  9.01141e-06
 Reference value :  9.01339e-06
 Reference value :  9.01531e-06
 Reference value :  9.01711e-06
 Reference value :  9.02000e-06
 Reference value :  9.02263e-06
 Reference value :  9.02618e-06
 Reference value :  9.02932e-06
 Reference value :  9.03256e-06
 Reference value :  9.03666e-06
 Reference value :  9.04244e-06
 Reference value :  9.04859e-06
 Reference value :  9.05651e-06
 Reference value :  9.06845e-06
 Reference value :  9.09093e-06
 Reference value :  9.12424e-06
 Reference value :  9.18330e-06
 Reference value :  9.25010e-06
 Reference value :  9.25011e-06
 Reference value :  9.25013e-06
 Reference value :  9.25017e-06
 Reference value :  9.25020e-06
 Reference value :  9.25020e-06
 Reference value :  9.25020e-06
 Reference value :  9.25020e-06
 Reference value :  9.25021e-06
 Reference value :  9.25022e-06
 Reference value :  9.25023e-06
 Reference value :  9.25027e-06
 Reference value :  9.25033e-06
 Reference value :  9.25047e-06
 Reference value :  9.25064e-06
 Reference value :  9.25091e-06
 Reference value :  9.25145e-06
 Reference value :  9.25210e-06
 Reference value :  9.25280e-06
 Reference value :  9.25353e-06
 Reference value :  9.25443e-06
 Reference value :  9.25552e-06
 Reference value :  9.25665e-06
 Reference value :  9.25768e-06
 Reference value :  9.25877e-06
 Reference value :  9.25976e-06
 Reference value :  9.26081e-06
 Reference value :  9.26233e-06
 Reference value :  9.26390e-06
 Reference value :  9.26703e-06
 Reference value :  9.27212e-06
 Reference value :  9.27993e-06
 Reference value :  9.29465e-06
 Reference value :  9.31770e-06
 Reference value :  9.35853e-06
 Reference value :  9.42766e-06
 Reference value :  9.50000e-06
 Reference value :  9.50001e-06
 Reference value :  9.50003e-06
 Reference value :  9.50007e-06
 Reference value :  9.50010e-06
 Reference value :  9.50010e-06
 Reference value :  9.50010e-06
 Reference value :  9.50010e-06
 Reference value :  9.50011e-06
 Reference value :  9.50012e-06
 Reference value :  9.50013e-06
 Reference value :  9.50017e-06
 Reference value :  9.50023e-06
 Reference value :  9.50036e-06
 Reference value :  9.50056e-06
 Reference value :  9.50096e-06
 Reference value :  9.50147e-06
 Reference value :  9.50201e-06
 Reference value :  9.50276e-06
 Reference value :  9.50346e-06
 Reference value :  9.50420e-06
 Reference value :  9.50499e-06
 Reference value :  9.50587e-06
 Reference value :  9.50691e-06
 Reference value :  9.50774e-06
 Reference value :  9.50867e-06
 Reference value :  9.50966e-06
 Reference value :  9.51084e-06
 Reference value :  9.51249e-06
 Reference value :  9.51493e-06
 Reference value :  9.51837e-06
 Reference value :  9.52257e-06
 Reference value :  9.52577e-06
 Reference value :  9.52863e-06
 Reference value :  9.53084e-06
 Reference value :  9.53289e-06
 Reference value :  9.53525e-06
 Reference value :  9.53752e-06
 Reference value :  9.54008e-06
 Reference value :  9.54372e-06
 Reference value :  9.54820e-06
 Reference value :  9.55481e-06
 Reference value :  9.56461e-06
 Reference value :  9.57929e-06
 Reference value :  9.60254e-06
 Reference value :  9.63771e-06
 Reference value :  9.67972e-06
 Reference value :  9.72388e-06
 Reference value :  9.74613e-06
 Reference value :  9.75010e-06
 Reference value :  9.75011e-06
 Reference value :  9.75013e-06
 Reference value :  9.75017e-06
 Reference value :  9.75020e-06
 Reference value :  9.75020e-06
 Reference value :  9.75020e-06
 Reference value :  9.75020e-06
 Reference value :  9.75021e-06
 Reference value :  9.75022e-06
 Reference value :  9.75023e-06
 Reference value :  9.75027e-06
 Reference value :  9.75033e-06
 Reference value :  9.75047e-06
 Reference value :  9.75064e-06
 Reference value :  9.75091e-06
 Reference value :  9.75145e-06
 Reference value :  9.75210e-06
 Reference value :  9.75288e-06
 Reference value :  9.75358e-06
 Reference value :  9.75455e-06
 Reference value :  9.75561e-06
 Reference value :  9.75650e-06
 Reference value :  9.75756e-06
 Reference value :  9.75869e-06
 Reference value :  9.75984e-06
 Reference value :  9.76129e-06
 Reference value :  9.76393e-06
 Reference value :  9.76730e-06
 Reference value :  9.77247e-06
 Reference value :  9.78280e-06
 Reference value :  9.79820e-06
 Reference value :  9.82740e-06
 Reference value :  9.88578e-06
 Reference value :  1.00000e-05
 Reference value :  1.00000e-05
 Reference value :  1.00000e-05
 Reference value :  1.00001e-05
 Reference value :  1.00001e-05
 Reference value :  1.00001e-05
 Reference value :  1.00001e-05
 Reference value :  1.00001e-05
 Reference value :  1.00001e-05
 Reference value :  1.00001e-05
 Reference value :  1.00001e-05
 Reference value :  1.00002e-05
 Reference value :  1.00002e-05
 Reference value :  1.00004e-05
 Reference value :  1.00006e-05
 Reference value :  1.00010e-05
 Reference value :  1.00015e-05
 Reference value :  1.00020e-05
 Reference value :  1.00027e-05
 Reference value :  1.00034e-05
 Reference value :  1.00042e-05
 Reference value :  1.00050e-05
 Reference value :  1.00059e-05
 Reference value :  1.00070e-05
 Reference value :  1.00080e-05
 Reference value :  1.00096e-05
 Reference value :  1.00112e-05
 Reference value :  1.00132e-05
 Reference value :  1.00148e-05
 Reference value :  1.00165e-05
 Reference value :  1.00188e-05
 Reference value :  1.00211e-05
 Reference value :  1.00250e-05
 Reference value :  1.00301e-05
 Reference value :  1.00379e-05
 Reference value :  1.00502e-05
 Reference value :  1.00723e-05
 Reference value :  1.01135e-05
 Reference value :  1.01850e-05
 Reference value :  1.02501e-05
 Reference value :  1.02501e-05
 Reference value :  1.02501e-05
 Reference value :  1.02502e-05
 Reference value :  1.02502e-05
 Reference value :  1.02502e-05
 Reference value :  1.02502e-05
 Reference value :  1.02502e-05
 Reference value :  1.02502e-05
 Reference value :  1.02502e-05
 Reference value :  1.02502e-05
 Reference value :  1.02503e-05
 Reference value :  1.02503e-05
 Reference value :  1.02505e-05
 Reference value :  1.02506e-05
 Reference value :  1.02509e-05
 Reference value :  1.02515e-05
 Reference value :  1.02521e-05
 Reference value :  1.02529e-05
 Reference value :  1.02536e-05
 Reference value :  1.02545e-05
 Reference value :  1.02556e-05
 Reference value :  1.02565e-05
 Reference value :  1.02576e-05
 Reference value :  1.02585e-05
 Reference value :  1.02595e-05
 Reference value :  1.02606e-05
 Reference value :  1.02619e-05
 Reference value :  1.02634e-05
 Reference value :  1.02650e-05
 Reference value :  1.02674e-05
 Reference value :  1.02700e-05
 Reference value :  1.02744e-05
 Reference value :  1.02831e-05
 Reference value :  1.02962e-05
 Reference value :  1.03218e-05
 Reference value :  1.03651e-05
 Reference value :  1.04419e-05
 Reference value :  1.05000e-05
 Reference value :  1.05000e-05
 Reference value :  1.05000e-05
 Reference value :  1.05001e-05
 Reference value :  1.05001e-05
 Reference value :  1.05001e-05
 Reference value :  1.05001e-05
 Reference value :  1.05001e-05
 Reference value :  1.05001e-05
 Reference value :  1.05001e-05
 Reference value :  1.05001e-05
 Reference value :  1.05002e-05
 Reference value :  1.05002e-05
 Reference value :  1.05004e-05
 Reference value :  1.05006e-05
 Reference value :  1.05010e-05
 Reference value :  1.05015e-05
 Reference value :  1.05020e-05
 Reference value :  1.05027e-05
 Reference value :  1.05034e-05
 Reference value :  1.05042e-05
 Reference value :  1.05050e-05
 Reference value :  1.05059e-05
 Reference value :  1.05066e-05
 Reference value :  1.05075e-05
 Reference value :  1.05082e-05
 Reference value :  1.05090e-05
 Reference value :  1.05101e-05
 Reference value :  1.05112e-05
 Reference value :  1.05132e-05
 Reference value :  1.05154e-05
 Reference value :  1.05176e-05
 Reference value :  1.05198e-05
 Reference value :  1.05219e-05
 Reference value :  1.05242e-05
 Reference value :  1.05260e-05
 Reference value :  1.05274e-05
 Reference value :  1.05289e-05
 Reference value :  1.05306e-05
 Reference value :  1.05323e-05
 Reference value :  1.05343e-05
 Reference value :  1.05374e-05
 Reference value :  1.05407e-05
 Reference value :  1.05473e-05
 Reference value :  1.05574e-05
 Reference value :  1.05742e-05
 Reference value :  1.05945e-05
 Reference value :  1.06143e-05
 Reference value :  1.06339e-05
 Reference value :  1.06458e-05
 Reference value :  1.06568e-05
 Reference value :  1.06693e-05
 Reference value :  1.06842e-05
 Reference value :  1.07063e-05
 Reference value :  1.07380e-05
 Reference value :  1.07501e-05
 Reference value :  1.07501e-05
 Reference value :  1.07501e-05
 Reference value :  1.07502e-05
 Reference value :  1.07502e-05
 Reference value :  1.07502e-05
 Reference value :  1.07502e-05
 Reference value :  1.07502e-05
 Reference value :  1.07502e-05
 Reference value :  1.07502e-05
 Reference value :  1.07502e-05
 Reference value :  1.07503e-05
 Reference value :  1.07503e-05
 Reference value :  1.07505e-05
 Reference value :  1.07506e-05
 Reference value :  1.07509e-05
 Reference value :  1.07515e-05
 Reference value :  1.07521e-05
 Reference value :  1.07529e-05
 Reference value :  1.07536e-05
 Reference value :  1.07545e-05
 Reference value :  1.07556e-05
 Reference value :  1.07566e-05
 Reference value :  1.07577e-05
 Reference value :  1.07588e-05
 Reference value :  1.07604e-05
 Reference value :  1.07624e-05
 Reference value :  1.07650e-05
 Reference value :  1.07689e-05
 Reference value :  1.07756e-05
 Reference value :  1.07862e-05
 Reference value :  1.08039e-05
 Reference value :  1.08392e-05
 Reference value :  1.09028e-05
 Reference value :  1.09667e-05
 Reference value :  1.10000e-05
 Reference value :  1.10000e-05
 Reference value :  1.10000e-05
 Reference value :  1.10001e-05
 Reference value :  1.10001e-05
 Reference value :  1.10001e-05
 Reference value :  1.10001e-05
 Reference value :  1.10001e-05
 Reference value :  1.10001e-05
 Reference value :  1.10001e-05
 Reference value :  1.10001e-05
 Reference value :  1.10002e-05
 Reference value :  1.10002e-05
 Reference value :  1.10004e-05
 Reference value :  1.10005e-05
 Reference value :  1.10009e-05
 Reference value :  1.10014e-05
 Reference value :  1.10019e-05
 Reference value :  1.10027e-05
 Reference value :  1.10034e-05
 Reference value :  1.10041e-05
 Reference value :  1.10049e-05
 Reference value :  1.10057e-05
 Reference value :  1.10067e-05
 Reference value :  1.10079e-05
 Reference value :  1.10095e-05
 Reference value :  1.10117e-05
 Reference value :  1.10132e-05
 Reference value :  1.10148e-05
 Reference value :  1.10165e-05
 Reference value :  1.10188e-05
 Reference value :  1.10213e-05
 Reference value :  1.10254e-05
 Reference value :  1.10313e-05
 Reference value :  1.10407e-05
 Reference value :  1.10586e-05
 Reference value :  1.10876e-05
 Reference value :  1.11397e-05
 Reference value :  1.12304e-05
 Reference value :  1.12501e-05
 Reference value :  1.12501e-05
 Reference value :  1.12501e-05
 Reference value :  1.12502e-05
 Reference value :  1.12502e-05
 Reference value :  1.12502e-05
 Reference value :  1.12502e-05
 Reference value :  1.12502e-05
 Reference value :  1.12502e-05
 Reference value :  1.12502e-05
 Reference value :  1.12502e-05
 Reference value :  1.12503e-05
 Reference value :  1.12503e-05
 Reference value :  1.12505e-05
 Reference value :  1.12506e-05
 Reference value :  1.12509e-05
 Reference value :  1.12515e-05
 Reference value :  1.12521e-05
 Reference value :  1.12529e-05
 Reference value :  1.12536e-05
 Reference value :  1.12545e-05
 Reference value :  1.12556e-05
 Reference value :  1.12566e-05
 Reference value :  1.12575e-05
 Reference value :  1.12584e-05
 Reference value :  1.12596e-05
 Reference value :  1.12608e-05
 Reference value :  1.12633e-05
 Reference value :  1.12664e-05
 Reference value :  1.12710e-05
 Reference value :  1.12794e-05
 Reference value :  1.12941e-05
 Reference value :  1.13187e-05
 Reference value :  1.13681e-05
 Reference value :  1.14667e-05
 Reference value :  1.15000e-05
 Reference value :  1.15000e-05
 Reference value :  1.15000e-05
 Reference value :  1.15001e-05
 Reference value :  1.15001e-05
 Reference value :  1.15001e-05
 Reference value :  1.15001e-05
 Reference value :  1.15001e-05
 Reference value :  1.15001e-05
 Reference value :  1.15001e-05
 Reference value :  1.15001e-05
 Reference value :  1.15002e-05
 Reference value :  1.15002e-05
 Reference value :  1.15004e-05
 Reference value :  1.15005e-05
 Reference value :  1.15009e-05
 Reference value :  1.15014e-05
 Reference value :  1.15019e-05
 Reference value :  1.15027e-05
 Reference value :  1.15034e-05
 Reference value :  1.15041e-05
 Reference value :  1.15049e-05
 Reference value :  1.15057e-05
 Reference value :  1.15067e-05
 Reference value :  1.15076e-05
 Reference value :  1.15084e-05
 Reference value :  1.15093e-05
 Reference value :  1.15105e-05
 Reference value :  1.15117e-05
 Reference value :  1.15140e-05
 Reference value :  1.15162e-05
 Reference value :  1.15190e-05
 Reference value :  1.15213e-05
 Reference value :  1.15234e-05
 Reference value :  1.15248e-05
 Reference value :  1.15263e-05
 Reference value :  1.15279e-05
 Reference value :  1.15295e-05
 Reference value :  1.15313e-05
 Reference value :  1.15341e-05
 Reference value :  1.15370e-05
 Reference value :  1.15429e-05
 Reference value :  1.15512e-05
 Reference value :  1.15617e-05
 Reference value :  1.15741e-05
 Reference value :  1.15859e-05
 Reference value :  1.15978e-05
 Reference value :  1.16087e-05
 Reference value :  1.16168e-05
 Reference value :  1.16252e-05
 Reference value :  1.16333e-05
 Reference value :  1.16420e-05
 Reference value :  1.16587e-05
 Reference value :  1.16810e-05
 Reference value :  1.17255e-05
 Reference value :  1.17501e-05
 Reference value :  1.17501e-05
 Reference value :  1.17501e-05
 Reference value :  1.17502e-05
 Reference value :  1.17502e-05
 Reference value :  1.17502e-05
 Reference value :  1.17502e-05
 Reference value :  1.17502e-05
 Reference value :  1.17502e-05
 Reference value :  1.17502e-05
 Reference value :  1.17502e-05
 Reference value :  1.17503e-05
 Reference value :  1.17503e-05
 Reference value :  1.17505e-05
 Reference value :  1.17506e-05
 Reference value :  1.17509e-05
 Reference value :  1.17515e-05
 Reference value :  1.17521e-05
 Reference value :  1.17529e-05
 Reference value :  1.17536e-05
 Reference value :  1.17545e-05
 Reference value :  1.17556e-05
 Reference value :  1.17566e-05
 Reference value :  1.17576e-05
 Reference value :  1.17586e-05
 Reference value :  1.17604e-05
 Reference value :  1.17620e-05
 Reference value :  1.17648e-05
 Reference value :  1.17683e-05
 Reference value :  1.17752e-05
 Reference value :  1.17860e-05
 Reference value :  1.18040e-05
 Reference value :  1.18400e-05
 Reference value :  1.19069e-05
 Reference value :  1.20000e-05
 Reference value :  1.20000e-05
 Reference value :  1.20000e-05
 Reference value :  1.20001e-05
 Reference value :  1.20001e-05
 Reference value :  1.20001e-05
 Reference value :  1.20001e-05
 Reference value :  1.20001e-05
 Reference value :  1.20001e-05
 Reference value :  1.20001e-05
 Reference value :  1.20001e-05
 Reference value :  1.20002e-05
 Reference value :  1.20002e-05
 Reference value :  1.20004e-05
 Reference value :  1.20005e-05
 Reference value :  1.20009e-05
 Reference value :  1.20014e-05
 Reference value :  1.20019e-05
 Reference value :  1.20027e-05
 Reference value :  1.20034e-05
 Reference value :  1.20041e-05
 Reference value :  1.20049e-05
 Reference value :  1.20058e-05
 Reference value :  1.20068e-05
 Reference value :  1.20080e-05
 Reference value :  1.20096e-05
 Reference value :  1.20111e-05
 Reference value :  1.20127e-05
 Reference value :  1.20143e-05
 Reference value :  1.20159e-05
 Reference value :  1.20176e-05
 Reference value :  1.20199e-05
 Reference value :  1.20223e-05
 Reference value :  1.20266e-05
 Reference value :  1.20328e-05
 Reference value :  1.20435e-05
 Reference value :  1.20627e-05
 Reference value :  1.20956e-05
 Reference value :  1.21571e-05
 Reference value :  1.22501e-05
 Reference value :  1.22501e-05
 Reference value :  1.22501e-05
 Reference value :  1.22502e-05
 Reference value :  1.22502e-05
 Reference value :  1.22502e-05
 Reference value :  1.22502e-05
 Reference value :  1.22502e-05
 Reference value :  1.22502e-05
 Reference value :  1.22502e-05
 Reference value :  1.22502e-05
 Reference value :  1.22503e-05
 Reference value :  1.22503e-05
 Reference value :  1.22505e-05
 Reference value :  1.22506e-05
 Reference value :  1.22509e-05
 Reference value :  1.22515e-05
 Reference value :  1.22521e-05
 Reference value :  1.22529e-05
 Reference value :  1.22536e-05
 Reference value :  1.22545e-05
 Reference value :  1.22556e-05
 Reference value :  1.22565e-05
 Reference value :  1.22575e-05
 Reference value :  1.22584e-05
 Reference value :  1.22595e-05
 Reference value :  1.22606e-05
 Reference value :  1.22620e-05
 Reference value :  1.22635e-05
 Reference value :  1.22660e-05
 Reference value :  1.22685e-05
 Reference value :  1.22722e-05
 Reference value :  1.22774e-05
 Reference value :  1.22878e-05
 Reference value :  1.23086e-05
 Reference value :  1.23501e-05
 Reference value :  1.24332e-05
 Reference value :  1.25000e-05
 Reference value :  1.25000e-05
 Reference value :  1.25000e-05
 Reference value :  1.25001e-05
 Reference value :  1.25001e-05
 Reference value :  1.25001e-05
 Reference value :  1.25001e-05
 Reference value :  1.25001e-05
 Reference value :  1.25001e-05
 Reference value :  1.25001e-05
 Reference value :  1.25001e-05
 Reference value :  1.25002e-05
 Reference value :  1.25002e-05
 Reference value :  1.25004e-05
 Reference value :  1.25005e-05
 Reference value :  1.25009e-05
 Reference value :  1.25014e-05
 Reference value :  1.25019e-05
 Reference value :  1.25027e-05
 Reference value :  1.25034e-05
 Reference value :  1.25041e-05
 Reference value :  1.25049e-05
 Reference value :  1.25057e-05
 Reference value :  1.25065e-05
 Reference value :  1.25073e-05
 Reference value :  1.25080e-05
 Reference value :  1.25089e-05
 Reference value :  1.25097e-05
 Reference value :  1.25109e-05
 Reference value :  1.25121e-05
 Reference value :  1.25142e-05
 Reference value :  1.25164e-05
 Reference value :  1.25181e-05
 Reference value :  1.25200e-05
 Reference value :  1.25225e-05
 Reference value :  1.25248e-05
 Reference value :  1.25265e-05
 Reference value :  1.25281e-05
 Reference value :  1.25301e-05
 Reference value :  1.25320e-05
 Reference value :  1.25343e-05
 Reference value :  1.25366e-05
 Reference value :  1.25387e-05
 Reference value :  1.25410e-05
 Reference value :  1.25432e-05
 Reference value :  1.25458e-05
 Reference value :  1.25503e-05
 Reference value :  1.25563e-05
 Reference value :  1.25658e-05
 Reference value :  1.25758e-05
 Reference value :  1.25956e-05
 Reference value :  1.26187e-05
 Reference value :  1.26447e-05
 Reference value :  1.26722e-05
 Reference value :  1.27146e-05
 Reference value :  1.27501e-05
 Reference value :  1.27501e-05
 Reference value :  1.27501e-05
 Reference value :  1.27502e-05
 Reference value :  1.27502e-05
 Reference value :  1.27502e-05
 Reference value :  1.27502e-05
 Reference value :  1.27502e-05
 Reference value :  1.27502e-05
 Reference value :  1.27502e-05
 Reference value :  1.27502e-05
 Reference value :  1.27503e-05
 Reference value :  1.27503e-05
 Reference value :  1.27504e-05
 Reference value :  1.27506e-05
 Reference value :  1.27508e-05
 Reference value :  1.27511e-05
 Reference value :  1.27517e-05
 Reference value :  1.27523e-05
 Reference value :  1.27530e-05
 Reference value :  1.27538e-05
 Reference value :  1.27547e-05
 Reference value :  1.27556e-05
 Reference value :  1.27565e-05
 Reference value :  1.27575e-05
 Reference value :  1.27584e-05
 Reference value :  1.27600e-05
 Reference value :  1.27616e-05
 Reference value :  1.27642e-05
 Reference value :  1.27677e-05
 Reference value :  1.27733e-05
 Reference value :  1.27844e-05
 Reference value :  1.28067e-05
 Reference value :  1.28513e-05
 Reference value :  1.29404e-05
 Reference value :  1.30000e-05
 Reference value :  1.30000e-05
 Reference value :  1.30000e-05
 Reference value :  1.30001e-05
 Reference value :  1.30001e-05
 Reference value :  1.30001e-05
 Reference value :  1.30001e-05
 Reference value :  1.30001e-05
 Reference value :  1.30001e-05
 Reference value :  1.30001e-05
 Reference value :  1.30001e-05
 Reference value :  1.30002e-05
 Reference value :  1.30002e-05
 Reference value :  1.30004e-05
 Reference value :  1.30006e-05
 Reference value :  1.30011e-05
 Reference value :  1.30018e-05
 Reference value :  1.30025e-05
 Reference value :  1.30031e-05
 Reference value :  1.30039e-05
 Reference value :  1.30047e-05
 Reference value :  1.30056e-05
 Reference value :  1.30065e-05
 Reference value :  1.30075e-05
 Reference value :  1.30088e-05
 Reference value :  1.30104e-05
 Reference value :  1.30116e-05
 Reference value :  1.30130e-05
 Reference value :  1.30145e-05
 Reference value :  1.30162e-05
 Reference value :  1.30180e-05
 Reference value :  1.30214e-05
 Reference value :  1.30283e-05
 Reference value :  1.30421e-05
 Reference value :  1.30696e-05
 Reference value :  1.31247e-05
 Reference value :  1.32349e-05
 Reference value :  1.32501e-05
 Reference value :  1.32501e-05
 Reference value :  1.32501e-05
 Reference value :  1.32502e-05
 Reference value :  1.32502e-05
 Reference value :  1.32502e-05
 Reference value :  1.32502e-05
 Reference value :  1.32502e-05
 Reference value :  1.32502e-05
 Reference value :  1.32502e-05
 Reference value :  1.32502e-05
 Reference value :  1.32503e-05
 Reference value :  1.32503e-05
 Reference value :  1.32504e-05
 Reference value :  1.32506e-05
 Reference value :  1.32508e-05
 Reference value :  1.32511e-05
 Reference value :  1.32517e-05
 Reference value :  1.32523e-05
 Reference value :  1.32530e-05
 Reference value :  1.32538e-05
 Reference value :  1.32547e-05
 Reference value :  1.32555e-05
 Reference value :  1.32565e-05
 Reference value :  1.32573e-05
 Reference value :  1.32582e-05
 Reference value :  1.32592e-05
 Reference value :  1.32604e-05
 Reference value :  1.32627e-05
 Reference value :  1.32656e-05
 Reference value :  1.32699e-05
 Reference value :  1.32770e-05
 Reference value :  1.32913e-05
 Reference value :  1.33199e-05
 Reference value :  1.33770e-05
 Reference value :  1.34914e-05
 Reference value :  1.35000e-05
 Reference value :  1.35000e-05
 Reference value :  1.35000e-05
 Reference value :  1.35001e-05
 Reference value :  1.35001e-05
 Reference value :  1.35001e-05
 Reference value :  1.35001e-05
 Reference value :  1.35001e-05
 Reference value :  1.35001e-05
 Reference value :  1.35001e-05
 Reference value :  1.35001e-05
 Reference value :  1.35002e-05
 Reference value :  1.35002e-05
 Reference value :  1.35004e-05
 Reference value :  1.35006e-05
 Reference value :  1.35011e-05
 Reference value :  1.35018e-05
 Reference value :  1.35025e-05
 Reference value :  1.35031e-05
 Reference value :  1.35039e-05
 Reference value :  1.35047e-05
 Reference value :  1.35056e-05
 Reference value :  1.35065e-05
 Reference value :  1.35073e-05
 Reference value :  1.35080e-05
 Reference value :  1.35089e-05
 Reference value :  1.35100e-05
 Reference value :  1.35112e-05
 Reference value :  1.35135e-05
 Reference value :  1.35159e-05
 Reference value :  1.35193e-05
 Reference value :  1.35228e-05
 Reference value :  1.35260e-05
 Reference value :  1.35284e-05
 Reference value :  1.35306e-05
 Reference value :  1.35332e-05
 Reference value :  1.35356e-05
 Reference value :  1.35385e-05
 Reference value :  1.35418e-05
 Reference value :  1.35474e-05
 Reference value :  1.35545e-05
 Reference value :  1.35630e-05
 Reference value :  1.35713e-05
 Reference value :  1.35807e-05
 Reference value :  1.35896e-05
 Reference value :  1.35974e-05
 Reference value :  1.36058e-05
 Reference value :  1.36132e-05
 Reference value :  1.36191e-05
 Reference value :  1.36255e-05
 Reference value :  1.36333e-05
 Reference value :  1.36405e-05
 Reference value :  1.36483e-05
 Reference value :  1.36636e-05
 Reference value :  1.36841e-05
 Reference value :  1.37192e-05
 Reference value :  1.37501e-05
 Reference value :  1.37501e-05
 Reference value :  1.37501e-05
 Reference value :  1.37502e-05
 Reference value :  1.37502e-05
 Reference value :  1.37502e-05
 Reference value :  1.37502e-05
 Reference value :  1.37502e-05
 Reference value :  1.37502e-05
 Reference value :  1.37502e-05
 Reference value :  1.37502e-05
 Reference value :  1.37503e-05
 Reference value :  1.37503e-05
 Reference value :  1.37504e-05
 Reference value :  1.37506e-05
 Reference value :  1.37508e-05
 Reference value :  1.37511e-05
 Reference value :  1.37517e-05
 Reference value :  1.37523e-05
 Reference value :  1.37530e-05
 Reference value :  1.37538e-05
 Reference value :  1.37547e-05
 Reference value :  1.37558e-05
 Reference value :  1.37565e-05
 Reference value :  1.37574e-05
 Reference value :  1.37584e-05
 Reference value :  1.37595e-05
 Reference value :  1.37607e-05
 Reference value :  1.37631e-05
 Reference value :  1.37662e-05
 Reference value :  1.37707e-05
 Reference value :  1.37793e-05
 Reference value :  1.37965e-05
 Reference value :  1.38308e-05
 Reference value :  1.38996e-05
 Reference value :  1.40000e-05
 Reference value :  1.40000e-05
 Reference value :  1.40000e-05
 Reference value :  1.40001e-05
 Reference value :  1.40001e-05
 Reference value :  1.40001e-05
 Reference value :  1.40001e-05
 Reference value :  1.40001e-05
 Reference value :  1.40001e-05
 Reference value :  1.40001e-05
 Reference value :  1.40001e-05
 Reference value :  1.40002e-05
 Reference value :  1.40002e-05
 Reference value :  1.40004e-05
 Reference value :  1.40006e-05
 Reference value :  1.40011e-05
 Reference value :  1.40018e-05
 Reference value :  1.40025e-05
 Reference value :  1.40031e-05
 Reference value :  1.40038e-05
 Reference value :  1.40048e-05
 Reference value :  1.40058e-05
 Reference value :  1.40067e-05
 Reference value :  1.40078e-05
 Reference value :  1.40092e-05
 Reference value :  1.40108e-05
 Reference value :  1.40122e-05
 Reference value :  1.40136e-05
 Reference value :  1.40151e-05
 Reference value :  1.40167e-05
 Reference value :  1.40184e-05
 Reference value :  1.40218e-05
 Reference value :  1.40267e-05
 Reference value :  1.40364e-05
 Reference value :  1.40545e-05
 Reference value :  1.40874e-05
 Reference value :  1.41531e-05
 Reference value :  1.42501e-05
 Reference value :  1.42501e-05
 Reference value :  1.42501e-05
 Reference value :  1.42502e-05
 Reference value :  1.42502e-05
 Reference value :  1.42502e-05
 Reference value :  1.42502e-05
 Reference value :  1.42502e-05
 Reference value :  1.42502e-05
 Reference value :  1.42502e-05
 Reference value :  1.42502e-05
 Reference value :  1.42503e-05
 Reference value :  1.42503e-05
 Reference value :  1.42504e-05
 Reference value :  1.42506e-05
 Reference value :  1.42508e-05
 Reference value :  1.42511e-05
 Reference value :  1.42517e-05
 Reference value :  1.42523e-05
 Reference value :  1.42530e-05
 Reference value :  1.42538e-05
 Reference value :  1.42547e-05
 Reference value :  1.42557e-05
 Reference value :  1.42565e-05
 Reference value :  1.42574e-05
 Reference value :  1.42584e-05
 Reference value :  1.42593e-05
 Reference value :  1.42607e-05
 Reference value :  1.42621e-05
 Reference value :  1.42650e-05
 Reference value :  1.42688e-05
 Reference value :  1.42763e-05
 Reference value :  1.42915e-05
 Reference value :  1.43186e-05
 Reference value :  1.43728e-05
 Reference value :  1.44812e-05
 Reference value :  1.45000e-05
 Reference value :  1.45000e-05
 Reference value :  1.45000e-05
 Reference value :  1.45001e-05
 Reference value :  1.45001e-05
 Reference value :  1.45001e-05
 Reference value :  1.45001e-05
 Reference value :  1.45001e-05
 Reference value :  1.45001e-05
 Reference value :  1.45001e-05
 Reference value :  1.45001e-05
 Reference value :  1.45002e-05
 Reference value :  1.45002e-05
 Reference value :  1.45004e-05
 Reference value :  1.45006e-05
 Reference value :  1.45011e-05
 Reference value :  1.45018e-05
 Reference value :  1.45025e-05
 Reference value :  1.45031e-05
 Reference value :  1.45039e-05
 Reference value :  1.45048e-05
 Reference value :  1.45057e-05
 Reference value :  1.45067e-05
 Reference value :  1.45076e-05
 Reference value :  1.45086e-05
 Reference value :  1.45096e-05
 Reference value :  1.45108e-05
 Reference value :  1.45126e-05
 Reference value :  1.45149e-05
 Reference value :  1.45189e-05
 Reference value :  1.45238e-05
 Reference value :  1.45272e-05
 Reference value :  1.45299e-05
 Reference value :  1.45326e-05
 Reference value :  1.45353e-05
 Reference value :  1.45381e-05
 Reference value :  1.45414e-05
 Reference value :  1.45447e-05
 Reference value :  1.45506e-05
 Reference value :  1.45570e-05
 Reference value :  1.45653e-05
 Reference value :  1.45752e-05
 Reference value :  1.45848e-05
 Reference value :  1.45918e-05
 Reference value :  1.45989e-05
 Reference value :  1.46085e-05
 Reference value :  1.46183e-05
 Reference value :  1.46325e-05
 Reference value :  1.46500e-05
 Reference value :  1.46738e-05
 Reference value :  1.47111e-05
 Reference value :  1.47501e-05
 Reference value :  1.47501e-05
 Reference value :  1.47501e-05
 Reference value :  1.47502e-05
 Reference value :  1.47502e-05
 Reference value :  1.47502e-05
 Reference value :  1.47502e-05
 Reference value :  1.47502e-05
 Reference value :  1.47502e-05
 Reference value :  1.47502e-05
 Reference value :  1.47502e-05
 Reference value :  1.47503e-05
 Reference value :  1.47503e-05
 Reference value :  1.47504e-05
 Reference value :  1.47506e-05
 Reference value :  1.47508e-05
 Reference value :  1.47511e-05
 Reference value :  1.47517e-05
 Reference value :  1.47523e-05
 Reference value :  1.47530e-05
 Reference value :  1.47537e-05
 Reference value :  1.47546e-05
 Reference value :  1.47557e-05
 Reference value :  1.47569e-05
 Reference value :  1.47580e-05
 Reference value :  1.47591e-05
 Reference value :  1.47603e-05
 Reference value :  1.47621e-05
 Reference value :  1.47642e-05
 Reference value :  1.47679e-05
 Reference value :  1.47737e-05
 Reference value :  1.47840e-05
 Reference value :  1.48031e-05
 Reference value :  1.48346e-05
 Reference value :  1.48698e-05
 Reference value :  1.49256e-05
 Reference value :  1.49590e-05
 Reference value :  1.49958e-05
 Reference value :  1.50000e-05
 Reference value :  1.50000e-05
 Reference value :  1.50000e-05
 Reference value :  1.50001e-05
 Reference value :  1.50001e-05
 Reference value :  1.50001e-05
 Reference value :  1.50001e-05
 Reference value :  1.50001e-05
 Reference value :  1.50001e-05
 Reference value :  1.50001e-05
 Reference value :  1.50001e-05
 Reference value :  1.50002e-05
 Reference value :  1.50002e-05
 Reference value :  1.50004e-05
 Reference value :  1.50006e-05
 Reference value :  1.50011e-05
 Reference value :  1.50018e-05
 Reference value :  1.50025e-05
 Reference value :  1.50031e-05
 Reference value :  1.50038e-05
 Reference value :  1.50048e-05
 Reference value :  1.50058e-05
 Reference value :  1.50067e-05
 Reference value :  1.50078e-05
 Reference value :  1.50089e-05
 Reference value :  1.50106e-05
 Reference value :  1.50124e-05
 Reference value :  1.50138e-05
 Reference value :  1.50153e-05
 Reference value :  1.50170e-05
 Reference value :  1.50188e-05
 Reference value :  1.50224e-05
 Reference value :  1.50271e-05
 Reference value :  1.50365e-05
 Reference value :  1.50538e-05
 Reference value :  1.50878e-05
 Reference value :  1.51559e-05
 Reference value :  1.52501e-05
 Reference value :  1.52501e-05
[...]
 Reference value :  2.68005e-04
 Reference value :  2.68006e-04
 Reference value :  2.68007e-04
 Reference value :  2.68008e-04
 Reference value :  2.68009e-04
 Reference value :  2.68011e-04
 Reference value :  2.68012e-04
 Reference value :  2.68014e-04
 Reference value :  2.68015e-04
 Reference value :  2.68017e-04
 Reference value :  2.68019e-04
 Reference value :  2.68022e-04
 Reference value :  2.68027e-04
 Reference value :  2.68035e-04
 Reference value :  2.68052e-04
 Reference value :  2.68081e-04
 Reference value :  2.68140e-04
 Reference value :  2.68250e-04
 Reference value :  2.68250e-04
 Reference value :  2.68250e-04
 Reference value :  2.68250e-04
 Reference value :  2.68250e-04
 Reference value :  2.68250e-04
 Reference value :  2.68250e-04
 Reference value :  2.68250e-04
 Reference value :  2.68250e-04
 Reference value :  2.68250e-04
 Reference value :  2.68250e-04
 Reference value :  2.68250e-04
 Reference value :  2.68250e-04
 Reference value :  2.68250e-04
 Reference value :  2.68251e-04
 Reference value :  2.68251e-04
 Reference value :  2.68251e-04
 Reference value :  2.68252e-04
 Reference value :  2.68252e-04
 Reference value :  2.68253e-04
 Reference value :  2.68254e-04
 Reference value :  2.68255e-04
 Reference value :  2.68256e-04
 Reference value :  2.68256e-04
 Reference value :  2.68257e-04
 Reference value :  2.68258e-04
 Reference value :  2.68259e-04
 Reference value :  2.68260e-04
 Reference value :  2.68262e-04
 Reference value :  2.68263e-04
 Reference value :  2.68266e-04
 Reference value :  2.68268e-04
 Reference value :  2.68272e-04
 Reference value :  2.68277e-04
 Reference value :  2.68288e-04
 Reference value :  2.68308e-04
 Reference value :  2.68350e-04
 Reference value :  2.68433e-04
 Reference value :  2.68500e-04
 Reference value :  2.68500e-04
 Reference value :  2.68500e-04
 Reference value :  2.68500e-04
 Reference value :  2.68500e-04
 Reference value :  2.68500e-04
 Reference value :  2.68500e-04
 Reference value :  2.68500e-04
 Reference value :  2.68500e-04
 Reference value :  2.68500e-04
 Reference value :  2.68500e-04
 Reference value :  2.68500e-04
 Reference value :  2.68500e-04
 Reference value :  2.68500e-04
 Reference value :  2.68501e-04
 Reference value :  2.68501e-04
 Reference value :  2.68502e-04
 Reference value :  2.68502e-04
 Reference value :  2.68503e-04
 Reference value :  2.68504e-04
 Reference value :  2.68505e-04
 Reference value :  2.68506e-04
 Reference value :  2.68506e-04
 Reference value :  2.68507e-04
 Reference value :  2.68508e-04
 Reference value :  2.68509e-04
 Reference value :  2.68510e-04
 Reference value :  2.68511e-04
 Reference value :  2.68513e-04
 Reference value :  2.68515e-04
 Reference value :  2.68517e-04
 Reference value :  2.68519e-04
 Reference value :  2.68522e-04
 Reference value :  2.68524e-04
 Reference value :  2.68526e-04
 Reference value :  2.68528e-04
 Reference value :  2.68530e-04
 Reference value :  2.68531e-04
 Reference value :  2.68533e-04
 Reference value :  2.68535e-04
 Reference value :  2.68538e-04
 Reference value :  2.68541e-04
 Reference value :  2.68547e-04
 Reference value :  2.68552e-04
 Reference value :  2.68560e-04
 Reference value :  2.68567e-04
 Reference value :  2.68574e-04
 Reference value :  2.68579e-04
 Reference value :  2.68585e-04
 Reference value :  2.68591e-04
 Reference value :  2.68601e-04
 Reference value :  2.68612e-04
 Reference value :  2.68628e-04
 Reference value :  2.68659e-04
 Reference value :  2.68679e-04
 Reference value :  2.68693e-04
 Reference value :  2.68707e-04
 Reference value :  2.68719e-04
 Reference value :  2.68732e-04
 Reference value :  2.68744e-04
 Reference value :  2.68750e-04
 Reference value :  2.68750e-04
 Reference value :  2.68750e-04
 Reference value :  2.68750e-04
 Reference value :  2.68750e-04
 Reference value :  2.68750e-04
 Reference value :  2.68750e-04
 Reference value :  2.68750e-04
 Reference value :  2.68750e-04
 Reference value :  2.68750e-04
 Reference value :  2.68750e-04
 Reference value :  2.68750e-04
 Reference value :  2.68750e-04
 Reference value :  2.68750e-04
 Reference value :  2.68751e-04
 Reference value :  2.68751e-04
 Reference value :  2.68751e-04
 Reference value :  2.68752e-04
 Reference value :  2.68752e-04
 Reference value :  2.68753e-04
 Reference value :  2.68754e-04
 Reference value :  2.68755e-04
 Reference value :  2.68756e-04
 Reference value :  2.68757e-04
 Reference value :  2.68757e-04
 Reference value :  2.68758e-04
 Reference value :  2.68759e-04
 Reference value :  2.68761e-04
 Reference value :  2.68763e-04
 Reference value :  2.68766e-04
 Reference value :  2.68771e-04
 Reference value :  2.68779e-04
 Reference value :  2.68796e-04
 Reference value :  2.68830e-04
 Reference value :  2.68893e-04
 Reference value :  2.68958e-04
 Reference value :  2.69000e-04
 Reference value :  2.69000e-04
 Reference value :  2.69000e-04
 Reference value :  2.69000e-04
 Reference value :  2.69000e-04
 Reference value :  2.69000e-04
 Reference value :  2.69000e-04
 Reference value :  2.69000e-04
 Reference value :  2.69000e-04
 Reference value :  2.69000e-04
 Reference value :  2.69000e-04
 Reference value :  2.69000e-04
 Reference value :  2.69000e-04
 Reference value :  2.69000e-04
 Reference value :  2.69001e-04
 Reference value :  2.69001e-04
 Reference value :  2.69002e-04
 Reference value :  2.69002e-04
 Reference value :  2.69003e-04
 Reference value :  2.69004e-04
 Reference value :  2.69005e-04
 Reference value :  2.69006e-04
 Reference value :  2.69007e-04
 Reference value :  2.69008e-04
 Reference value :  2.69009e-04
 Reference value :  2.69011e-04
 Reference value :  2.69012e-04
 Reference value :  2.69014e-04
 Reference value :  2.69015e-04
 Reference value :  2.69017e-04
 Reference value :  2.69019e-04
 Reference value :  2.69022e-04
 Reference value :  2.69027e-04
 Reference value :  2.69037e-04
 Reference value :  2.69054e-04
 Reference value :  2.69085e-04
 Reference value :  2.69144e-04
 Reference value :  2.69250e-04
 Reference value :  2.69250e-04
 Reference value :  2.69250e-04
 Reference value :  2.69250e-04
 Reference value :  2.69250e-04
 Reference value :  2.69250e-04
 Reference value :  2.69250e-04
 Reference value :  2.69250e-04
 Reference value :  2.69250e-04
 Reference value :  2.69250e-04
 Reference value :  2.69250e-04
 Reference value :  2.69250e-04
 Reference value :  2.69250e-04
 Reference value :  2.69250e-04
 Reference value :  2.69251e-04
 Reference value :  2.69251e-04
 Reference value :  2.69251e-04
 Reference value :  2.69252e-04
 Reference value :  2.69252e-04
 Reference value :  2.69253e-04
 Reference value :  2.69254e-04
 Reference value :  2.69255e-04
 Reference value :  2.69256e-04
 Reference value :  2.69256e-04
 Reference value :  2.69257e-04
 Reference value :  2.69258e-04
 Reference value :  2.69259e-04
 Reference value :  2.69260e-04
 Reference value :  2.69262e-04
 Reference value :  2.69263e-04
 Reference value :  2.69265e-04
 Reference value :  2.69267e-04
 Reference value :  2.69269e-04
 Reference value :  2.69274e-04
 Reference value :  2.69281e-04
 Reference value :  2.69293e-04
 Reference value :  2.69314e-04
 Reference value :  2.69349e-04
 Reference value :  2.69410e-04
 Reference value :  2.69500e-04
 Reference value :  2.69500e-04
 Reference value :  2.69500e-04
 Reference value :  2.69500e-04
 Reference value :  2.69500e-04
 Reference value :  2.69500e-04
 Reference value :  2.69500e-04
 Reference value :  2.69500e-04
 Reference value :  2.69500e-04
 Reference value :  2.69500e-04
 Reference value :  2.69500e-04
 Reference value :  2.69500e-04
 Reference value :  2.69500e-04
 Reference value :  2.69500e-04
 Reference value :  2.69501e-04
 Reference value :  2.69501e-04
 Reference value :  2.69502e-04
 Reference value :  2.69502e-04
 Reference value :  2.69503e-04
 Reference value :  2.69504e-04
 Reference value :  2.69505e-04
 Reference value :  2.69506e-04
 Reference value :  2.69507e-04
 Reference value :  2.69508e-04
 Reference value :  2.69509e-04
 Reference value :  2.69510e-04
 Reference value :  2.69511e-04
 Reference value :  2.69512e-04
 Reference value :  2.69514e-04
 Reference value :  2.69517e-04
 Reference value :  2.69519e-04
 Reference value :  2.69521e-04
 Reference value :  2.69523e-04
 Reference value :  2.69526e-04
 Reference value :  2.69528e-04
 Reference value :  2.69530e-04
 Reference value :  2.69531e-04
 Reference value :  2.69533e-04
 Reference value :  2.69535e-04
 Reference value :  2.69537e-04
 Reference value :  2.69540e-04
 Reference value :  2.69544e-04
 Reference value :  2.69548e-04
 Reference value :  2.69552e-04
 Reference value :  2.69556e-04
 Reference value :  2.69560e-04
 Reference value :  2.69564e-04
 Reference value :  2.69570e-04
 Reference value :  2.69577e-04
 Reference value :  2.69585e-04
 Reference value :  2.69601e-04
 Reference value :  2.69633e-04
 Reference value :  2.69689e-04
 Reference value :  2.69750e-04
 Reference value :  2.69750e-04
 Reference value :  2.69750e-04
 Reference value :  2.69750e-04
 Reference value :  2.69750e-04
 Reference value :  2.69750e-04
 Reference value :  2.69750e-04
 Reference value :  2.69750e-04
 Reference value :  2.69750e-04
 Reference value :  2.69750e-04
 Reference value :  2.69750e-04
 Reference value :  2.69750e-04
 Reference value :  2.69750e-04
 Reference value :  2.69750e-04
 Reference value :  2.69751e-04
 Reference value :  2.69751e-04
 Reference value :  2.69751e-04
 Reference value :  2.69752e-04
 Reference value :  2.69752e-04
 Reference value :  2.69753e-04
 Reference value :  2.69754e-04
 Reference value :  2.69755e-04
 Reference value :  2.69756e-04
 Reference value :  2.69757e-04
 Reference value :  2.69758e-04
 Reference value :  2.69759e-04
 Reference value :  2.69760e-04
 Reference value :  2.69762e-04
 Reference value :  2.69764e-04
 Reference value :  2.69767e-04
 Reference value :  2.69772e-04
 Reference value :  2.69781e-04
 Reference value :  2.69797e-04
 Reference value :  2.69824e-04
 Reference value :  2.69878e-04
 Reference value :  2.69986e-04
 Reference value :  2.70000e-04
 Reference value :  2.70000e-04
 Reference value :  2.70000e-04
 Reference value :  2.70000e-04
 Reference value :  2.70000e-04
 Reference value :  2.70000e-04
 Reference value :  2.70000e-04
 Reference value :  2.70000e-04
 Reference value :  2.70000e-04
 Reference value :  2.70000e-04
 Reference value :  2.70000e-04
 Reference value :  2.70000e-04
 Reference value :  2.70000e-04
 Reference value :  2.70000e-04
 Reference value :  2.70001e-04
 Reference value :  2.70001e-04
 Reference value :  2.70002e-04
 Reference value :  2.70002e-04
 Reference value :  2.70003e-04
 Reference value :  2.70004e-04
 Reference value :  2.70005e-04
 Reference value :  2.70006e-04
 Reference value :  2.70007e-04
 Reference value :  2.70008e-04
 Reference value :  2.70009e-04
 Reference value :  2.70010e-04
 Reference value :  2.70012e-04
 Reference value :  2.70014e-04
 Reference value :  2.70015e-04
 Reference value :  2.70017e-04
 Reference value :  2.70018e-04
 Reference value :  2.70022e-04
 Reference value :  2.70026e-04
 Reference value :  2.70034e-04
 Reference value :  2.70051e-04
 Reference value :  2.70084e-04
 Reference value :  2.70151e-04
 Reference value :  2.70250e-04
 Reference value :  2.70250e-04
 Reference value :  2.70250e-04
 Reference value :  2.70250e-04
 Reference value :  2.70250e-04
 Reference value :  2.70250e-04
 Reference value :  2.70250e-04
 Reference value :  2.70250e-04
 Reference value :  2.70250e-04
 Reference value :  2.70250e-04
 Reference value :  2.70250e-04
 Reference value :  2.70250e-04
 Reference value :  2.70250e-04
 Reference value :  2.70250e-04
 Reference value :  2.70251e-04
 Reference value :  2.70251e-04
 Reference value :  2.70251e-04
 Reference value :  2.70252e-04
 Reference value :  2.70252e-04
 Reference value :  2.70253e-04
 Reference value :  2.70254e-04
 Reference value :  2.70255e-04
 Reference value :  2.70256e-04
 Reference value :  2.70257e-04
 Reference value :  2.70258e-04
 Reference value :  2.70259e-04
 Reference value :  2.70260e-04
 Reference value :  2.70261e-04
 Reference value :  2.70262e-04
 Reference value :  2.70265e-04
 Reference value :  2.70269e-04
 Reference value :  2.70276e-04
 Reference value :  2.70289e-04
 Reference value :  2.70316e-04
 Reference value :  2.70362e-04
 Reference value :  2.70404e-04
 Reference value :  2.70432e-04
 Reference value :  2.70460e-04
 Reference value :  2.70488e-04
 Reference value :  2.70500e-04
 Reference value :  2.70500e-04
 Reference value :  2.70500e-04
 Reference value :  2.70500e-04
 Reference value :  2.70500e-04
 Reference value :  2.70500e-04
 Reference value :  2.70500e-04
 Reference value :  2.70500e-04
 Reference value :  2.70500e-04
 Reference value :  2.70500e-04
 Reference value :  2.70500e-04
 Reference value :  2.70500e-04
 Reference value :  2.70500e-04
 Reference value :  2.70500e-04
 Reference value :  2.70501e-04
 Reference value :  2.70501e-04
 Reference value :  2.70502e-04
 Reference value :  2.70502e-04
 Reference value :  2.70503e-04
 Reference value :  2.70504e-04
 Reference value :  2.70505e-04
 Reference value :  2.70506e-04
 Reference value :  2.70507e-04
 Reference value :  2.70507e-04
 Reference value :  2.70508e-04
 Reference value :  2.70509e-04
 Reference value :  2.70510e-04
 Reference value :  2.70511e-04
 Reference value :  2.70512e-04
 Reference value :  2.70515e-04
 Reference value :  2.70517e-04
 Reference value :  2.70520e-04
 Reference value :  2.70522e-04
 Reference value :  2.70524e-04
 Reference value :  2.70526e-04
 Reference value :  2.70528e-04
 Reference value :  2.70529e-04
 Reference value :  2.70531e-04
 Reference value :  2.70532e-04
 Reference value :  2.70534e-04
 Reference value :  2.70536e-04
 Reference value :  2.70539e-04
 Reference value :  2.70542e-04
 Reference value :  2.70547e-04
 Reference value :  2.70554e-04
 Reference value :  2.70567e-04
 Reference value :  2.70591e-04
 Reference value :  2.70630e-04
 Reference value :  2.70709e-04
 Reference value :  2.70750e-04
 Reference value :  2.70750e-04
 Reference value :  2.70750e-04
 Reference value :  2.70750e-04
 Reference value :  2.70750e-04
 Reference value :  2.70750e-04
 Reference value :  2.70750e-04
 Reference value :  2.70750e-04
 Reference value :  2.70750e-04
 Reference value :  2.70750e-04
 Reference value :  2.70750e-04
 Reference value :  2.70750e-04
 Reference value :  2.70750e-04
 Reference value :  2.70750e-04
 Reference value :  2.70751e-04
 Reference value :  2.70751e-04
 Reference value :  2.70751e-04
 Reference value :  2.70752e-04
 Reference value :  2.70752e-04
 Reference value :  2.70753e-04
 Reference value :  2.70754e-04
 Reference value :  2.70755e-04
 Reference value :  2.70756e-04
 Reference value :  2.70757e-04
 Reference value :  2.70758e-04
 Reference value :  2.70759e-04
 Reference value :  2.70760e-04
 Reference value :  2.70762e-04
 Reference value :  2.70764e-04
 Reference value :  2.70767e-04
 Reference value :  2.70772e-04
 Reference value :  2.70782e-04
 Reference value :  2.70800e-04
 Reference value :  2.70834e-04
 Reference value :  2.70900e-04
 Reference value :  2.71000e-04
 Reference value :  2.71000e-04
 Reference value :  2.71000e-04
 Reference value :  2.71000e-04
 Reference value :  2.71000e-04
 Reference value :  2.71000e-04
 Reference value :  2.71000e-04
 Reference value :  2.71000e-04
 Reference value :  2.71000e-04
 Reference value :  2.71000e-04
 Reference value :  2.71000e-04
 Reference value :  2.71000e-04
 Reference value :  2.71000e-04
 Reference value :  2.71000e-04
 Reference value :  2.71001e-04
 Reference value :  2.71001e-04
 Reference value :  2.71002e-04
 Reference value :  2.71002e-04
 Reference value :  2.71003e-04
 Reference value :  2.71004e-04
 Reference value :  2.71005e-04
 Reference value :  2.71006e-04
 Reference value :  2.71007e-04
 Reference value :  2.71008e-04
 Reference value :  2.71009e-04
 Reference value :  2.71011e-04
 Reference value :  2.71013e-04
 Reference value :  2.71015e-04
 Reference value :  2.71016e-04
 Reference value :  2.71019e-04
 Reference value :  2.71021e-04
 Reference value :  2.71025e-04
 Reference value :  2.71031e-04
 Reference value :  2.71040e-04
 Reference value :  2.71055e-04
 Reference value :  2.71080e-04
 Reference value :  2.71126e-04
 Reference value :  2.71213e-04
 Reference value :  2.71250e-04
 Reference value :  2.71250e-04
 Reference value :  2.71250e-04
 Reference value :  2.71250e-04
 Reference value :  2.71250e-04
 Reference value :  2.71250e-04
 Reference value :  2.71250e-04
 Reference value :  2.71250e-04
 Reference value :  2.71250e-04
 Reference value :  2.71250e-04
 Reference value :  2.71250e-04
 Reference value :  2.71250e-04
 Reference value :  2.71250e-04
 Reference value :  2.71250e-04
 Reference value :  2.71251e-04
 Reference value :  2.71251e-04
 Reference value :  2.71251e-04
 Reference value :  2.71252e-04
 Reference value :  2.71252e-04
 Reference value :  2.71253e-04
 Reference value :  2.71254e-04
 Reference value :  2.71255e-04
 Reference value :  2.71256e-04
 Reference value :  2.71257e-04
 Reference value :  2.71258e-04
 Reference value :  2.71259e-04
 Reference value :  2.71260e-04
 Reference value :  2.71261e-04
 Reference value :  2.71262e-04
 Reference value :  2.71264e-04
 Reference value :  2.71269e-04
 Reference value :  2.71275e-04
 Reference value :  2.71288e-04
 Reference value :  2.71314e-04
 Reference value :  2.71366e-04
 Reference value :  2.71469e-04
 Reference value :  2.71500e-04
 Reference value :  2.71500e-04
 Reference value :  2.71500e-04
 Reference value :  2.71500e-04
 Reference value :  2.71500e-04
 Reference value :  2.71500e-04
 Reference value :  2.71500e-04
 Reference value :  2.71500e-04
 Reference value :  2.71500e-04
 Reference value :  2.71500e-04
 Reference value :  2.71500e-04
 Reference value :  2.71500e-04
 Reference value :  2.71500e-04
 Reference value :  2.71500e-04
 Reference value :  2.71501e-04
 Reference value :  2.71501e-04
 Reference value :  2.71502e-04
 Reference value :  2.71502e-04
 Reference value :  2.71503e-04
 Reference value :  2.71504e-04
 Reference value :  2.71505e-04
 Reference value :  2.71506e-04
 Reference value :  2.71507e-04
 Reference value :  2.71508e-04
 Reference value :  2.71509e-04
 Reference value :  2.71510e-04
 Reference value :  2.71511e-04
 Reference value :  2.71512e-04
 Reference value :  2.71514e-04
 Reference value :  2.71516e-04
 Reference value :  2.71517e-04
 Reference value :  2.71519e-04
 Reference value :  2.71523e-04
 Reference value :  2.71528e-04
 Reference value :  2.71537e-04
 Reference value :  2.71555e-04
 Reference value :  2.71590e-04
 Reference value :  2.71662e-04
 Reference value :  2.71750e-04
 Reference value :  2.71750e-04
 Reference value :  2.71750e-04
 Reference value :  2.71750e-04
 Reference value :  2.71750e-04
 Reference value :  2.71750e-04
 Reference value :  2.71750e-04
 Reference value :  2.71750e-04
 Reference value :  2.71750e-04
 Reference value :  2.71750e-04
 Reference value :  2.71750e-04
 Reference value :  2.71750e-04
 Reference value :  2.71750e-04
 Reference value :  2.71750e-04
 Reference value :  2.71751e-04
 Reference value :  2.71751e-04
 Reference value :  2.71751e-04
 Reference value :  2.71752e-04
 Reference value :  2.71753e-04
 Reference value :  2.71753e-04
 Reference value :  2.71754e-04
 Reference value :  2.71755e-04
 Reference value :  2.71757e-04
 Reference value :  2.71758e-04
 Reference value :  2.71760e-04
 Reference value :  2.71762e-04
 Reference value :  2.71764e-04
 Reference value :  2.71768e-04
 Reference value :  2.71773e-04
 Reference value :  2.71782e-04
 Reference value :  2.71796e-04
 Reference value :  2.71824e-04
 Reference value :  2.71880e-04
 Reference value :  2.71986e-04
 Reference value :  2.72000e-04
No. of Data Rows : 44078
ngspice-44 done
