
Note: Compatibility modes selected: hs a


Circuit: ** sch_path: /home/audrey/cace/sar-adc-using-sky130-pdk/runs/run_2025-09-09_12-19-17/parameters/power/run_0/power_consumption.sch

option SCALE: Scale is set to 1e-06 for instance and model parameters
option SCALE: Scale is set to 1e-06 for instance and model parameters
option SCALE: Scale is set to 1e-06 for instance and model parameters
option SCALE: Scale is set to 1e-06 for instance and model parameters
Doing analysis at TEMP = 27.000000 and TNOM = 27.000000

Using KLU as Direct Linear Solver
 Reference value :  0.00000e+00
 Reference value :  1.00000e-12
 Reference value :  8.00000e-12
 Reference value :  3.20000e-11
 Reference value :  6.40000e-11
 Reference value :  1.00000e-10
 Reference value :  1.19200e-10
 Reference value :  1.44800e-10
 Reference value :  2.98400e-10
 Reference value :  7.14901e-10
 Reference value :  1.04540e-09
 Reference value :  1.44343e-09
 Reference value :  1.79883e-09
 Reference value :  2.23933e-09
 Reference value :  3.03596e-09
 Reference value :  3.49541e-09
 Reference value :  3.99568e-09
 Reference value :  5.10262e-09
 Reference value :  5.71785e-09
 Reference value :  7.30474e-09
 Reference value :  8.28739e-09
 Reference value :  1.03299e-08
 Reference value :  1.13954e-08
 Reference value :  1.22051e-08
 Reference value :  1.38638e-08
 Reference value :  1.59166e-08
 Reference value :  1.91682e-08
 Reference value :  2.23344e-08
 Reference value :  2.33414e-08
 Reference value :  2.51869e-08
 Reference value :  2.77085e-08
 Reference value :  3.25294e-08
 Reference value :  3.98017e-08
 Reference value :  5.00756e-08
 Reference value :  6.96748e-08
 Reference value :  1.28438e-07
 Reference value :  2.50100e-07
 Reference value :  2.50130e-07
 Reference value :  2.50200e-07
 Reference value :  2.50221e-07
 Reference value :  2.50250e-07
 Reference value :  2.50378e-07
 Reference value :  2.50519e-07
 Reference value :  2.50924e-07
 Reference value :  2.51656e-07
 Reference value :  2.52104e-07
 Reference value :  2.52707e-07
 Reference value :  2.53485e-07
 Reference value :  2.54052e-07
 Reference value :  2.55369e-07
 Reference value :  2.56963e-07
 Reference value :  2.59500e-07
 Reference value :  2.65387e-07
 Reference value :  2.83609e-07
 Reference value :  3.40611e-07
 Reference value :  5.00000e-07
 Reference value :  5.00030e-07
 Reference value :  5.00070e-07
 Reference value :  5.00100e-07
 Reference value :  5.00124e-07
 Reference value :  5.00220e-07
 Reference value :  5.00500e-07
 Reference value :  5.01283e-07
 Reference value :  5.01758e-07
 Reference value :  5.02188e-07
 Reference value :  5.03256e-07
 Reference value :  5.03857e-07
 Reference value :  5.04514e-07
 Reference value :  5.06269e-07
 Reference value :  5.09048e-07
 Reference value :  5.10262e-07
 Reference value :  5.13076e-07
 Reference value :  5.16400e-07
 Reference value :  5.23392e-07
 Reference value :  5.44368e-07
 Reference value :  6.80958e-07
 Reference value :  7.50110e-07
 Reference value :  7.50170e-07
 Reference value :  7.50224e-07
 Reference value :  7.50444e-07
 Reference value :  7.50948e-07
 Reference value :  7.51856e-07
 Reference value :  7.53029e-07
 Reference value :  7.54423e-07
 Reference value :  7.56757e-07
 Reference value :  7.65810e-07
 Reference value :  8.08861e-07
 Reference value :  1.00000e-06
 Reference value :  1.00007e-06
 Reference value :  1.00016e-06
 Reference value :  1.00034e-06
 Reference value :  1.00128e-06
 Reference value :  1.00219e-06
 Reference value :  1.00329e-06
 Reference value :  1.00441e-06
 Reference value :  1.00557e-06
 Reference value :  1.00609e-06
 Reference value :  1.00671e-06
 Reference value :  1.00843e-06
 Reference value :  1.00995e-06
 Reference value :  1.01142e-06
 Reference value :  1.01278e-06
 Reference value :  1.01493e-06
 Reference value :  1.01707e-06
 Reference value :  1.01937e-06
 Reference value :  1.02272e-06
 Reference value :  1.03031e-06
 Reference value :  1.03814e-06
 Reference value :  1.04429e-06
 Reference value :  1.04989e-06
 Reference value :  1.05531e-06
 Reference value :  1.06824e-06
 Reference value :  1.08822e-06
 Reference value :  1.25010e-06
 Reference value :  1.25017e-06
 Reference value :  1.25022e-06
 Reference value :  1.25044e-06
 Reference value :  1.25095e-06
 Reference value :  1.25138e-06
 Reference value :  1.25236e-06
 Reference value :  1.25374e-06
 Reference value :  1.25510e-06
 Reference value :  1.25676e-06
 Reference value :  1.26187e-06
 Reference value :  1.28588e-06
 Reference value :  1.41767e-06
 Reference value :  1.50003e-06
 Reference value :  1.50010e-06
 Reference value :  1.50016e-06
 Reference value :  1.50050e-06
 Reference value :  1.50129e-06
 Reference value :  1.50218e-06
 Reference value :  1.50332e-06
 Reference value :  1.50473e-06
 Reference value :  1.50657e-06
 Reference value :  1.50734e-06
 Reference value :  1.50903e-06
 Reference value :  1.51120e-06
 Reference value :  1.52889e-06
 Reference value :  1.65879e-06
 Reference value :  1.75011e-06
 Reference value :  1.75020e-06
 Reference value :  1.75026e-06
 Reference value :  1.75068e-06
 Reference value :  1.75138e-06
 Reference value :  1.75236e-06
 Reference value :  1.75377e-06
 Reference value :  1.75506e-06
 Reference value :  1.75672e-06
 Reference value :  1.75844e-06
 Reference value :  1.76216e-06
 Reference value :  1.78820e-06
 Reference value :  2.00001e-06
 Reference value :  2.00011e-06
 Reference value :  2.00022e-06
 Reference value :  2.00083e-06
 Reference value :  2.00128e-06
 Reference value :  2.00219e-06
 Reference value :  2.00329e-06
 Reference value :  2.00441e-06
 Reference value :  2.00556e-06
 Reference value :  2.00670e-06
 Reference value :  2.00843e-06
 Reference value :  2.01071e-06
 Reference value :  2.01284e-06
 Reference value :  2.01451e-06
 Reference value :  2.01645e-06
 Reference value :  2.01852e-06
 Reference value :  2.02125e-06
 Reference value :  2.04046e-06
 Reference value :  2.10639e-06
 Reference value :  2.14907e-06
 Reference value :  2.16232e-06
 Reference value :  2.17483e-06
 Reference value :  2.18993e-06
 Reference value :  2.21017e-06
 Reference value :  2.21607e-06
 Reference value :  2.22196e-06
 Reference value :  2.22674e-06
 Reference value :  2.24439e-06
 Reference value :  2.25011e-06
 Reference value :  2.25020e-06
 Reference value :  2.25032e-06
 Reference value :  2.25095e-06
 Reference value :  2.25185e-06
 Reference value :  2.25302e-06
 Reference value :  2.25440e-06
 Reference value :  2.25675e-06
 Reference value :  2.26184e-06
 Reference value :  2.30642e-06
 Reference value :  2.50000e-06
 Reference value :  2.50007e-06
 Reference value :  2.50010e-06
 Reference value :  2.50016e-06
 Reference value :  2.50050e-06
 Reference value :  2.50129e-06
 Reference value :  2.50218e-06
 Reference value :  2.50332e-06
 Reference value :  2.50473e-06
 Reference value :  2.50553e-06
 Reference value :  2.50734e-06
 Reference value :  2.50817e-06
 Reference value :  2.50903e-06
 Reference value :  2.51003e-06
 Reference value :  2.51241e-06
 Reference value :  2.52891e-06
 Reference value :  2.65944e-06
 Reference value :  2.75011e-06
 Reference value :  2.75017e-06
 Reference value :  2.75021e-06
 Reference value :  2.75032e-06
 Reference value :  2.75068e-06
 Reference value :  2.75138e-06
 Reference value :  2.75235e-06
 Reference value :  2.75376e-06
 Reference value :  2.75439e-06
 Reference value :  2.75577e-06
 Reference value :  2.75758e-06
 Reference value :  2.75843e-06
 Reference value :  2.76075e-06
 Reference value :  2.76488e-06
 Reference value :  2.77530e-06
 Reference value :  2.80822e-06
 Reference value :  2.92861e-06
 Reference value :  3.00003e-06
 Reference value :  3.00010e-06
 Reference value :  3.00012e-06
 Reference value :  3.00022e-06
 Reference value :  3.00083e-06
 Reference value :  3.00128e-06
 Reference value :  3.00219e-06
 Reference value :  3.00329e-06
 Reference value :  3.00441e-06
 Reference value :  3.00556e-06
 Reference value :  3.00609e-06
 Reference value :  3.00756e-06
 Reference value :  3.00973e-06
 Reference value :  3.01071e-06
 Reference value :  3.01174e-06
 Reference value :  3.01369e-06
 Reference value :  3.01546e-06
 Reference value :  3.01745e-06
 Reference value :  3.01851e-06
 Reference value :  3.02124e-06
 Reference value :  3.03178e-06
 Reference value :  3.04826e-06
 Reference value :  3.05700e-06
 Reference value :  3.06461e-06
 Reference value :  3.07051e-06
 Reference value :  3.07476e-06
 Reference value :  3.07735e-06
 Reference value :  3.08421e-06
 Reference value :  3.09327e-06
 Reference value :  3.11683e-06
 Reference value :  3.16647e-06
 Reference value :  3.22867e-06
 Reference value :  3.25011e-06
 Reference value :  3.25017e-06
 Reference value :  3.25021e-06
 Reference value :  3.25026e-06
 Reference value :  3.25044e-06
 Reference value :  3.25094e-06
 Reference value :  3.25138e-06
 Reference value :  3.25185e-06
 Reference value :  3.25302e-06
 Reference value :  3.25378e-06
 Reference value :  3.25438e-06
 Reference value :  3.25570e-06
 Reference value :  3.25759e-06
 Reference value :  3.26141e-06
 Reference value :  3.27265e-06
 Reference value :  3.30608e-06
 Reference value :  3.32991e-06
 Reference value :  3.37695e-06
 Reference value :  3.39362e-06
 Reference value :  3.42137e-06
 Reference value :  3.47714e-06
 Reference value :  3.50003e-06
 Reference value :  3.50011e-06
 Reference value :  3.50016e-06
 Reference value :  3.50050e-06
 Reference value :  3.50129e-06
 Reference value :  3.50218e-06
 Reference value :  3.50396e-06
 Reference value :  3.50565e-06
 Reference value :  3.50673e-06
 Reference value :  3.50751e-06
 Reference value :  3.50835e-06
 Reference value :  3.50916e-06
 Reference value :  3.51115e-06
 Reference value :  3.51921e-06
 Reference value :  3.54571e-06
 Reference value :  3.72977e-06
 Reference value :  3.75013e-06
 Reference value :  3.75020e-06
 Reference value :  3.75026e-06
 Reference value :  3.75069e-06
 Reference value :  3.75138e-06
 Reference value :  3.75236e-06
 Reference value :  3.75376e-06
 Reference value :  3.75506e-06
 Reference value :  3.75671e-06
 Reference value :  3.75843e-06
 Reference value :  3.76215e-06
 Reference value :  3.77534e-06
 Reference value :  3.85100e-06
 Reference value :  4.00001e-06
 Reference value :  4.00007e-06
 Reference value :  4.00012e-06
 Reference value :  4.00034e-06
 Reference value :  4.00083e-06
 Reference value :  4.00128e-06
 Reference value :  4.00219e-06
 Reference value :  4.00330e-06
 Reference value :  4.00443e-06
 Reference value :  4.00500e-06
 Reference value :  4.00557e-06
 Reference value :  4.00609e-06
 Reference value :  4.00754e-06
 Reference value :  4.00972e-06
 Reference value :  4.01068e-06
 Reference value :  4.01281e-06
 Reference value :  4.01366e-06
 Reference value :  4.01545e-06
 Reference value :  4.01746e-06
 Reference value :  4.01972e-06
 Reference value :  4.02317e-06
 Reference value :  4.02791e-06
 Reference value :  4.03034e-06
 Reference value :  4.03211e-06
 Reference value :  4.03557e-06
 Reference value :  4.04084e-06
 Reference value :  4.04943e-06
 Reference value :  4.08432e-06
 Reference value :  4.18502e-06
 Reference value :  4.25011e-06
 Reference value :  4.25017e-06
 Reference value :  4.25021e-06
 Reference value :  4.25026e-06
 Reference value :  4.25045e-06
 Reference value :  4.25095e-06
 Reference value :  4.25138e-06
 Reference value :  4.25236e-06
 Reference value :  4.25378e-06
 Reference value :  4.25438e-06
 Reference value :  4.25666e-06
 Reference value :  4.26142e-06
 Reference value :  4.30576e-06
 Reference value :  4.50001e-06
 Reference value :  4.50010e-06
 Reference value :  4.50016e-06
 Reference value :  4.50050e-06
 Reference value :  4.50128e-06
 Reference value :  4.50219e-06
 Reference value :  4.50323e-06
 Reference value :  4.50442e-06
 Reference value :  4.50616e-06
 Reference value :  4.50818e-06
 Reference value :  4.51036e-06
 Reference value :  4.51289e-06
 Reference value :  4.52858e-06
 Reference value :  4.64326e-06
 Reference value :  4.75013e-06
 Reference value :  4.75021e-06
 Reference value :  4.75044e-06
 Reference value :  4.75094e-06
 Reference value :  4.75138e-06
 Reference value :  4.75235e-06
 Reference value :  4.75439e-06
 Reference value :  4.75671e-06
 Reference value :  4.76552e-06
 Reference value :  4.84116e-06
 Reference value :  5.00000e-06
 Reference value :  5.00007e-06
 Reference value :  5.00012e-06
 Reference value :  5.00034e-06
 Reference value :  5.00128e-06
 Reference value :  5.00219e-06
 Reference value :  5.00329e-06
 Reference value :  5.00440e-06
 Reference value :  5.00557e-06
 Reference value :  5.00609e-06
 Reference value :  5.00844e-06
 Reference value :  5.01143e-06
 Reference value :  5.01280e-06
 Reference value :  5.01492e-06
 Reference value :  5.01706e-06
 Reference value :  5.01936e-06
 Reference value :  5.02271e-06
 Reference value :  5.03851e-06
 Reference value :  5.05251e-06
 Reference value :  5.05776e-06
 Reference value :  5.06902e-06
 Reference value :  5.08203e-06
 Reference value :  5.11333e-06
 Reference value :  5.14475e-06
 Reference value :  5.15485e-06
 Reference value :  5.17474e-06
 Reference value :  5.19267e-06
 Reference value :  5.24736e-06
 Reference value :  5.25011e-06
 Reference value :  5.25017e-06
 Reference value :  5.25021e-06
 Reference value :  5.25032e-06
 Reference value :  5.25068e-06
 Reference value :  5.25094e-06
 Reference value :  5.25138e-06
 Reference value :  5.25235e-06
 Reference value :  5.25378e-06
 Reference value :  5.25439e-06
 Reference value :  5.25504e-06
 Reference value :  5.25571e-06
 Reference value :  5.25667e-06
 Reference value :  5.25919e-06
 Reference value :  5.26551e-06
 Reference value :  5.30551e-06
 Reference value :  5.50000e-06
 Reference value :  5.50003e-06
 Reference value :  5.50010e-06
 Reference value :  5.50012e-06
 Reference value :  5.50022e-06
 Reference value :  5.50050e-06
 Reference value :  5.50128e-06
 Reference value :  5.50219e-06
 Reference value :  5.50323e-06
 Reference value :  5.50443e-06
 Reference value :  5.50617e-06
 Reference value :  5.50720e-06
 Reference value :  5.50818e-06
 Reference value :  5.51037e-06
 Reference value :  5.51289e-06
 Reference value :  5.52869e-06
 Reference value :  5.75010e-06
 Reference value :  5.75013e-06
 Reference value :  5.75020e-06
 Reference value :  5.75026e-06
 Reference value :  5.75044e-06
 Reference value :  5.75094e-06
 Reference value :  5.75138e-06
 Reference value :  5.75235e-06
 Reference value :  5.75377e-06
 Reference value :  5.75439e-06
 Reference value :  5.75577e-06
 Reference value :  5.75758e-06
 Reference value :  5.76142e-06
 Reference value :  5.78404e-06
 Reference value :  5.90673e-06
 Reference value :  6.00001e-06
 Reference value :  6.00007e-06
 Reference value :  6.00012e-06
 Reference value :  6.00034e-06
 Reference value :  6.00128e-06
 Reference value :  6.00219e-06
 Reference value :  6.00329e-06
 Reference value :  6.00440e-06
 Reference value :  6.00557e-06
 Reference value :  6.00609e-06
 Reference value :  6.00844e-06
 Reference value :  6.01143e-06
 Reference value :  6.01280e-06
 Reference value :  6.01388e-06
 Reference value :  6.01706e-06
 Reference value :  6.01936e-06
 Reference value :  6.02605e-06
 Reference value :  6.03767e-06
 Reference value :  6.04465e-06
 Reference value :  6.05003e-06
 Reference value :  6.06142e-06
 Reference value :  6.07596e-06
 Reference value :  6.10866e-06
 Reference value :  6.23267e-06
 Reference value :  6.25013e-06
 Reference value :  6.25021e-06
 Reference value :  6.25032e-06
 Reference value :  6.25094e-06
 Reference value :  6.25185e-06
 Reference value :  6.25302e-06
 Reference value :  6.25439e-06
 Reference value :  6.25576e-06
 Reference value :  6.25936e-06
 Reference value :  6.27284e-06
 Reference value :  6.40158e-06
 Reference value :  6.50007e-06
 Reference value :  6.50012e-06
 Reference value :  6.50034e-06
 Reference value :  6.50083e-06
 Reference value :  6.50129e-06
 Reference value :  6.50176e-06
 Reference value :  6.50265e-06
 Reference value :  6.50395e-06
 Reference value :  6.50554e-06
 Reference value :  6.50735e-06
 Reference value :  6.50903e-06
 Reference value :  6.51119e-06
 Reference value :  6.52885e-06
 Reference value :  6.65851e-06
 Reference value :  6.75013e-06
 Reference value :  6.75020e-06
 Reference value :  6.75026e-06
 Reference value :  6.75068e-06
 Reference value :  6.75138e-06
 Reference value :  6.75302e-06
 Reference value :  6.75439e-06
 Reference value :  6.75670e-06
 Reference value :  6.75842e-06
 Reference value :  6.76214e-06
 Reference value :  6.78734e-06
 Reference value :  6.92475e-06
 Reference value :  7.00003e-06
 Reference value :  7.00011e-06
 Reference value :  7.00016e-06
 Reference value :  7.00050e-06
 Reference value :  7.00128e-06
 Reference value :  7.00219e-06
 Reference value :  7.00329e-06
 Reference value :  7.00441e-06
 Reference value :  7.00556e-06
 Reference value :  7.00609e-06
 Reference value :  7.00843e-06
 Reference value :  7.01072e-06
 Reference value :  7.01286e-06
 Reference value :  7.01368e-06
 Reference value :  7.01553e-06
 Reference value :  7.01756e-06
 Reference value :  7.01983e-06
 Reference value :  7.02244e-06
 Reference value :  7.02721e-06
 Reference value :  7.03584e-06
 Reference value :  7.13127e-06
 Reference value :  7.25011e-06
 Reference value :  7.25020e-06
 Reference value :  7.25032e-06
 Reference value :  7.25094e-06
 Reference value :  7.25185e-06
 Reference value :  7.25378e-06
 Reference value :  7.25503e-06
 Reference value :  7.25665e-06
 Reference value :  7.25915e-06
 Reference value :  7.27246e-06
 Reference value :  7.34062e-06
 Reference value :  7.50001e-06
 Reference value :  7.50007e-06
 Reference value :  7.50011e-06
 Reference value :  7.50022e-06
 Reference value :  7.50083e-06
 Reference value :  7.50128e-06
 Reference value :  7.50219e-06
 Reference value :  7.50323e-06
 Reference value :  7.50442e-06
 Reference value :  7.50616e-06
 Reference value :  7.50818e-06
 Reference value :  7.51036e-06
 Reference value :  7.51289e-06
 Reference value :  7.54477e-06
 Reference value :  7.75010e-06
 Reference value :  7.75017e-06
 Reference value :  7.75026e-06
 Reference value :  7.75068e-06
 Reference value :  7.75138e-06
 Reference value :  7.75235e-06
 Reference value :  7.75377e-06
 Reference value :  7.75439e-06
 Reference value :  7.75576e-06
 Reference value :  7.75758e-06
 Reference value :  7.76546e-06
 Reference value :  7.80491e-06
 Reference value :  8.00000e-06
 Reference value :  8.00007e-06
 Reference value :  8.00011e-06
 Reference value :  8.00022e-06
 Reference value :  8.00083e-06
 Reference value :  8.00128e-06
 Reference value :  8.00219e-06
 Reference value :  8.00329e-06
 Reference value :  8.00440e-06
 Reference value :  8.00557e-06
 Reference value :  8.00671e-06
 Reference value :  8.00844e-06
 Reference value :  8.01027e-06
 Reference value :  8.01794e-06
 Reference value :  8.07924e-06
 Reference value :  8.25013e-06
 Reference value :  8.25020e-06
 Reference value :  8.25032e-06
 Reference value :  8.25095e-06
 Reference value :  8.25186e-06
 Reference value :  8.25387e-06
 Reference value :  8.25789e-06
 Reference value :  8.28063e-06
 Reference value :  8.50000e-06
No. of Data Rows : 1276
ngspice-44 done
