
Note: Compatibility modes selected: hs a


Circuit: ** sch_path: /home/ece/cace/sar-adc-using-sky130-pdk/runs/run_2025-09-09_04-49-06/parameters/sampling_rate/run_14/sampling_rate.sch

option SCALE: Scale is set to 1e-06 for instance and model parameters
option SCALE: Scale is set to 1e-06 for instance and model parameters
option SCALE: Scale is set to 1e-06 for instance and model parameters
option SCALE: Scale is set to 1e-06 for instance and model parameters
Doing analysis at TEMP = 27.000000 and TNOM = 27.000000

Using KLU as Direct Linear Solver
Operating point simulation skipped by 'uic',
  now using transient initial conditions.
 Reference value :  1.00000e-12
 Reference value :  1.02772e-12
 Reference value :  1.08316e-12
 Reference value :  1.19404e-12
 Reference value :  1.33849e-12
 Reference value :  1.62739e-12
 Reference value :  2.20519e-12
 Reference value :  3.06317e-12
 Reference value :  3.96386e-12
 Reference value :  5.17288e-12
 Reference value :  6.88254e-12
 Reference value :  1.00077e-11
 Reference value :  1.36552e-11
 Reference value :  2.02890e-11
 Reference value :  2.71806e-11
 Reference value :  3.60369e-11
 Reference value :  4.69096e-11
 Reference value :  6.51297e-11
 Reference value :  8.53156e-11
 Reference value :  1.00000e-10
 Reference value :  1.01222e-10
 Reference value :  1.03667e-10
 Reference value :  1.08557e-10
 Reference value :  1.18335e-10
 Reference value :  1.37893e-10
 Reference value :  1.77009e-10
 Reference value :  2.55240e-10
 Reference value :  4.07118e-10
 Reference value :  5.70117e-10
 Reference value :  8.36592e-10
 Reference value :  1.19344e-09
 Reference value :  1.65047e-09
 Reference value :  2.38624e-09
 Reference value :  3.09896e-09
 Reference value :  3.72778e-09
 Reference value :  4.51341e-09
 Reference value :  5.33385e-09
 Reference value :  6.24868e-09
 Reference value :  7.62696e-09
 Reference value :  8.90501e-09
 Reference value :  9.94959e-09
 Reference value :  1.09583e-08
 Reference value :  1.18361e-08
 Reference value :  1.27830e-08
 Reference value :  1.46748e-08
 Reference value :  1.69922e-08
 Reference value :  2.00125e-08
 Reference value :  2.37456e-08
 Reference value :  2.66873e-08
 Reference value :  2.94105e-08
 Reference value :  3.22133e-08
 Reference value :  3.56860e-08
 Reference value :  4.05902e-08
 Reference value :  4.66081e-08
 Reference value :  5.81602e-08
 Reference value :  7.70409e-08
 Reference value :  1.13712e-07
 Reference value :  1.70325e-07
 Reference value :  2.43497e-07
 Reference value :  2.50100e-07
 Reference value :  2.50110e-07
 Reference value :  2.50130e-07
 Reference value :  2.50170e-07
 Reference value :  2.50200e-07
 Reference value :  2.50201e-07
 Reference value :  2.50202e-07
 Reference value :  2.50204e-07
 Reference value :  2.50208e-07
 Reference value :  2.50216e-07
 Reference value :  2.50233e-07
 Reference value :  2.50267e-07
 Reference value :  2.50335e-07
 Reference value :  2.50412e-07
 Reference value :  2.50567e-07
 Reference value :  2.50716e-07
 Reference value :  2.51015e-07
 Reference value :  2.51339e-07
 Reference value :  2.51860e-07
 Reference value :  2.52428e-07
 Reference value :  2.53220e-07
 Reference value :  2.54044e-07
 Reference value :  2.55122e-07
 Reference value :  2.55874e-07
 Reference value :  2.56731e-07
 Reference value :  2.57737e-07
 Reference value :  2.58846e-07
 Reference value :  2.60170e-07
 Reference value :  2.62410e-07
 Reference value :  2.64463e-07
 Reference value :  2.72823e-07
 Reference value :  2.82342e-07
 Reference value :  2.98870e-07
 Reference value :  3.27117e-07
 Reference value :  3.83612e-07
 Reference value :  4.96601e-07
 Reference value :  5.00000e-07
 Reference value :  5.00010e-07
 Reference value :  5.00030e-07
 Reference value :  5.00070e-07
 Reference value :  5.00100e-07
 Reference value :  5.00104e-07
 Reference value :  5.00112e-07
 Reference value :  5.00129e-07
 Reference value :  5.00162e-07
 Reference value :  5.00229e-07
 Reference value :  5.00362e-07
 Reference value :  5.00537e-07
 Reference value :  5.00888e-07
 Reference value :  5.01502e-07
 Reference value :  5.02193e-07
 Reference value :  5.02817e-07
 Reference value :  5.03504e-07
 Reference value :  5.04212e-07
 Reference value :  5.05148e-07
 Reference value :  5.06118e-07
 Reference value :  5.07100e-07
 Reference value :  5.08379e-07
 Reference value :  5.09807e-07
 Reference value :  5.11739e-07
 Reference value :  5.14069e-07
 Reference value :  5.15916e-07
 Reference value :  5.17905e-07
 Reference value :  5.19991e-07
 Reference value :  5.22394e-07
 Reference value :  5.25104e-07
 Reference value :  5.27935e-07
 Reference value :  5.33189e-07
 Reference value :  5.41575e-07
 Reference value :  5.51296e-07
 Reference value :  5.70738e-07
 Reference value :  6.09623e-07
 Reference value :  6.73426e-07
 Reference value :  7.50100e-07
 Reference value :  7.50110e-07
 Reference value :  7.50130e-07
 Reference value :  7.50170e-07
 Reference value :  7.50201e-07
 Reference value :  7.50202e-07
 Reference value :  7.50205e-07
 Reference value :  7.50211e-07
 Reference value :  7.50224e-07
 Reference value :  7.50248e-07
 Reference value :  7.50297e-07
 Reference value :  7.50395e-07
 Reference value :  7.50590e-07
 Reference value :  7.50977e-07
 Reference value :  7.51389e-07
 Reference value :  7.51911e-07
 Reference value :  7.52518e-07
 Reference value :  7.53316e-07
 Reference value :  7.54225e-07
 Reference value :  7.55414e-07
 Reference value :  7.56519e-07
 Reference value :  7.57522e-07
 Reference value :  7.58609e-07
 Reference value :  7.59816e-07
 Reference value :  7.61113e-07
 Reference value :  7.63557e-07
 Reference value :  7.66725e-07
 Reference value :  7.72290e-07
 Reference value :  8.03446e-07
 Reference value :  8.42148e-07
 Reference value :  9.15408e-07
 Reference value :  1.00001e-06
 Reference value :  1.00003e-06
 Reference value :  1.00007e-06
 Reference value :  1.00010e-06
 Reference value :  1.00010e-06
 Reference value :  1.00011e-06
 Reference value :  1.00013e-06
 Reference value :  1.00016e-06
 Reference value :  1.00023e-06
 Reference value :  1.00036e-06
 Reference value :  1.00054e-06
 Reference value :  1.00089e-06
 Reference value :  1.00151e-06
 Reference value :  1.00220e-06
 Reference value :  1.00282e-06
 Reference value :  1.00346e-06
 Reference value :  1.00415e-06
 Reference value :  1.00499e-06
 Reference value :  1.00587e-06
 Reference value :  1.00672e-06
 Reference value :  1.00777e-06
 Reference value :  1.00888e-06
 Reference value :  1.00997e-06
 Reference value :  1.01100e-06
 Reference value :  1.01243e-06
 Reference value :  1.01413e-06
 Reference value :  1.01684e-06
 Reference value :  1.01885e-06
 Reference value :  1.02101e-06
 Reference value :  1.02262e-06
 Reference value :  1.02414e-06
 Reference value :  1.02558e-06
 Reference value :  1.02714e-06
 Reference value :  1.02887e-06
 Reference value :  1.03113e-06
 Reference value :  1.03350e-06
 Reference value :  1.03815e-06
 Reference value :  1.04458e-06
 Reference value :  1.05583e-06
 Reference value :  1.07396e-06
 Reference value :  1.09985e-06
 Reference value :  1.21715e-06
 Reference value :  1.25011e-06
 Reference value :  1.25013e-06
 Reference value :  1.25017e-06
 Reference value :  1.25020e-06
 Reference value :  1.25020e-06
 Reference value :  1.25020e-06
 Reference value :  1.25021e-06
 Reference value :  1.25021e-06
 Reference value :  1.25022e-06
 Reference value :  1.25025e-06
 Reference value :  1.25029e-06
 Reference value :  1.25039e-06
 Reference value :  1.25058e-06
 Reference value :  1.25092e-06
 Reference value :  1.25135e-06
 Reference value :  1.25187e-06
 Reference value :  1.25248e-06
 Reference value :  1.25324e-06
 Reference value :  1.25412e-06
 Reference value :  1.25531e-06
 Reference value :  1.25621e-06
 Reference value :  1.25716e-06
 Reference value :  1.25824e-06
 Reference value :  1.25979e-06
 Reference value :  1.26124e-06
 Reference value :  1.26376e-06
 Reference value :  1.26673e-06
 Reference value :  1.27221e-06
 Reference value :  1.30281e-06
 Reference value :  1.34205e-06
 Reference value :  1.41663e-06
 Reference value :  1.50000e-06
 Reference value :  1.50001e-06
 Reference value :  1.50003e-06
 Reference value :  1.50007e-06
 Reference value :  1.50010e-06
 Reference value :  1.50010e-06
 Reference value :  1.50013e-06
 Reference value :  1.50023e-06
 Reference value :  1.50053e-06
 Reference value :  1.50087e-06
 Reference value :  1.50145e-06
 Reference value :  1.50221e-06
 Reference value :  1.50288e-06
 Reference value :  1.50356e-06
 Reference value :  1.50426e-06
 Reference value :  1.50525e-06
 Reference value :  1.50620e-06
 Reference value :  1.50718e-06
 Reference value :  1.50863e-06
 Reference value :  1.51001e-06
 Reference value :  1.51130e-06
 Reference value :  1.51269e-06
 Reference value :  1.51421e-06
 Reference value :  1.51589e-06
 Reference value :  1.51744e-06
 Reference value :  1.51949e-06
 Reference value :  1.52170e-06
 Reference value :  1.52557e-06
 Reference value :  1.53142e-06
 Reference value :  1.54166e-06
 Reference value :  1.56066e-06
 Reference value :  1.59414e-06
 Reference value :  1.65797e-06
 Reference value :  1.75010e-06
 Reference value :  1.75011e-06
 Reference value :  1.75013e-06
 Reference value :  1.75017e-06
 Reference value :  1.75020e-06
 Reference value :  1.75020e-06
 Reference value :  1.75020e-06
 Reference value :  1.75021e-06
 Reference value :  1.75021e-06
 Reference value :  1.75022e-06
 Reference value :  1.75025e-06
 Reference value :  1.75029e-06
 Reference value :  1.75039e-06
 Reference value :  1.75058e-06
 Reference value :  1.75092e-06
 Reference value :  1.75135e-06
 Reference value :  1.75187e-06
 Reference value :  1.75248e-06
 Reference value :  1.75324e-06
 Reference value :  1.75411e-06
 Reference value :  1.75529e-06
 Reference value :  1.75619e-06
 Reference value :  1.75714e-06
 Reference value :  1.75818e-06
 Reference value :  1.75931e-06
 Reference value :  1.76052e-06
 Reference value :  1.76295e-06
 Reference value :  1.76558e-06
 Reference value :  1.77020e-06
 Reference value :  1.77854e-06
 Reference value :  1.79522e-06
 Reference value :  1.82859e-06
 Reference value :  1.89348e-06
 Reference value :  2.00000e-06
 Reference value :  2.00001e-06
 Reference value :  2.00003e-06
 Reference value :  2.00007e-06
 Reference value :  2.00010e-06
 Reference value :  2.00010e-06
 Reference value :  2.00011e-06
 Reference value :  2.00013e-06
 Reference value :  2.00016e-06
 Reference value :  2.00023e-06
 Reference value :  2.00036e-06
 Reference value :  2.00053e-06
 Reference value :  2.00087e-06
 Reference value :  2.00145e-06
 Reference value :  2.00221e-06
 Reference value :  2.00288e-06
 Reference value :  2.00356e-06
 Reference value :  2.00427e-06
 Reference value :  2.00525e-06
 Reference value :  2.00603e-06
 Reference value :  2.00686e-06
 Reference value :  2.00785e-06
 Reference value :  2.00893e-06
 Reference value :  2.00992e-06
 Reference value :  2.01096e-06
 Reference value :  2.01237e-06
 Reference value :  2.01398e-06
 Reference value :  2.01628e-06
 Reference value :  2.01849e-06
 Reference value :  2.02053e-06
 Reference value :  2.02215e-06
 Reference value :  2.02370e-06
 Reference value :  2.02530e-06
 Reference value :  2.02697e-06
 Reference value :  2.02890e-06
 Reference value :  2.03082e-06
 Reference value :  2.03343e-06
 Reference value :  2.03795e-06
 Reference value :  2.04250e-06
 Reference value :  2.04759e-06
 Reference value :  2.05225e-06
 Reference value :  2.05607e-06
 Reference value :  2.05925e-06
 Reference value :  2.06271e-06
 Reference value :  2.06651e-06
 Reference value :  2.07022e-06
 Reference value :  2.07661e-06
 Reference value :  2.08285e-06
 Reference value :  2.08882e-06
 Reference value :  2.09612e-06
 Reference value :  2.10776e-06
 Reference value :  2.12804e-06
 Reference value :  2.16858e-06
 Reference value :  2.24968e-06
 Reference value :  2.25010e-06
 Reference value :  2.25011e-06
 Reference value :  2.25013e-06
 Reference value :  2.25017e-06
 Reference value :  2.25020e-06
 Reference value :  2.25020e-06
 Reference value :  2.25020e-06
 Reference value :  2.25021e-06
 Reference value :  2.25022e-06
 Reference value :  2.25025e-06
 Reference value :  2.25029e-06
 Reference value :  2.25039e-06
 Reference value :  2.25058e-06
 Reference value :  2.25092e-06
 Reference value :  2.25135e-06
 Reference value :  2.25187e-06
 Reference value :  2.25248e-06
 Reference value :  2.25324e-06
 Reference value :  2.25411e-06
 Reference value :  2.25524e-06
 Reference value :  2.25616e-06
 Reference value :  2.25712e-06
 Reference value :  2.25820e-06
 Reference value :  2.25977e-06
 Reference value :  2.26131e-06
 Reference value :  2.26378e-06
 Reference value :  2.26678e-06
 Reference value :  2.27213e-06
 Reference value :  2.28282e-06
 Reference value :  2.30196e-06
 Reference value :  2.33977e-06
 Reference value :  2.41130e-06
 Reference value :  2.50000e-06
 Reference value :  2.50001e-06
 Reference value :  2.50003e-06
 Reference value :  2.50007e-06
 Reference value :  2.50010e-06
 Reference value :  2.50010e-06
 Reference value :  2.50011e-06
 Reference value :  2.50013e-06
 Reference value :  2.50016e-06
 Reference value :  2.50023e-06
 Reference value :  2.50036e-06
 Reference value :  2.50053e-06
 Reference value :  2.50087e-06
 Reference value :  2.50145e-06
 Reference value :  2.50221e-06
 Reference value :  2.50284e-06
 Reference value :  2.50350e-06
 Reference value :  2.50419e-06
 Reference value :  2.50515e-06
 Reference value :  2.50611e-06
 Reference value :  2.50707e-06
 Reference value :  2.50855e-06
 Reference value :  2.50991e-06
 Reference value :  2.51128e-06
 Reference value :  2.51284e-06
 Reference value :  2.51460e-06
 Reference value :  2.51628e-06
 Reference value :  2.51819e-06
 Reference value :  2.52040e-06
 Reference value :  2.52425e-06
 Reference value :  2.54130e-06
 Reference value :  2.60127e-06
 Reference value :  2.75010e-06
 Reference value :  2.75013e-06
 Reference value :  2.75020e-06
 Reference value :  2.75020e-06
 Reference value :  2.75020e-06
 Reference value :  2.75021e-06
 Reference value :  2.75022e-06
 Reference value :  2.75025e-06
 Reference value :  2.75030e-06
 Reference value :  2.75039e-06
 Reference value :  2.75059e-06
 Reference value :  2.75094e-06
 Reference value :  2.75136e-06
 Reference value :  2.75188e-06
 Reference value :  2.75249e-06
 Reference value :  2.75325e-06
 Reference value :  2.75413e-06
 Reference value :  2.75531e-06
 Reference value :  2.75623e-06
 Reference value :  2.75720e-06
 Reference value :  2.75823e-06
 Reference value :  2.75934e-06
 Reference value :  2.76056e-06
 Reference value :  2.76184e-06
 Reference value :  2.76324e-06
 Reference value :  2.76536e-06
 Reference value :  2.76769e-06
 Reference value :  2.77128e-06
 Reference value :  2.77695e-06
 Reference value :  2.78829e-06
 Reference value :  2.81096e-06
 Reference value :  2.85626e-06
 Reference value :  2.94684e-06
 Reference value :  3.00000e-06
 Reference value :  3.00001e-06
 Reference value :  3.00003e-06
 Reference value :  3.00007e-06
 Reference value :  3.00010e-06
 Reference value :  3.00010e-06
 Reference value :  3.00011e-06
 Reference value :  3.00013e-06
 Reference value :  3.00016e-06
 Reference value :  3.00023e-06
 Reference value :  3.00036e-06
 Reference value :  3.00087e-06
 Reference value :  3.00144e-06
 Reference value :  3.00221e-06
 Reference value :  3.00288e-06
 Reference value :  3.00356e-06
 Reference value :  3.00427e-06
 Reference value :  3.00513e-06
 Reference value :  3.00590e-06
 Reference value :  3.00673e-06
 Reference value :  3.00780e-06
 Reference value :  3.00879e-06
 Reference value :  3.00972e-06
 Reference value :  3.01075e-06
 Reference value :  3.01209e-06
 Reference value :  3.01365e-06
 Reference value :  3.01522e-06
 Reference value :  3.01693e-06
 Reference value :  3.01855e-06
 Reference value :  3.02025e-06
 Reference value :  3.02150e-06
 Reference value :  3.02268e-06
 Reference value :  3.02410e-06
 Reference value :  3.02558e-06
 Reference value :  3.02696e-06
 Reference value :  3.02869e-06
 Reference value :  3.03085e-06
 Reference value :  3.03321e-06
 Reference value :  3.03763e-06
 Reference value :  3.04410e-06
 Reference value :  3.05535e-06
 Reference value :  3.07036e-06
 Reference value :  3.08391e-06
 Reference value :  3.09696e-06
 Reference value :  3.10638e-06
 Reference value :  3.11533e-06
 Reference value :  3.12588e-06
 Reference value :  3.13567e-06
 Reference value :  3.14836e-06
 Reference value :  3.16159e-06
 Reference value :  3.17725e-06
 Reference value :  3.19213e-06
 Reference value :  3.20160e-06
 Reference value :  3.20901e-06
 Reference value :  3.21629e-06
 Reference value :  3.22494e-06
 Reference value :  3.23056e-06
 Reference value :  3.23688e-06
 Reference value :  3.24520e-06
 Reference value :  3.25010e-06
 Reference value :  3.25011e-06
 Reference value :  3.25013e-06
 Reference value :  3.25020e-06
 Reference value :  3.25020e-06
 Reference value :  3.25020e-06
 Reference value :  3.25021e-06
 Reference value :  3.25021e-06
 Reference value :  3.25022e-06
 Reference value :  3.25025e-06
 Reference value :  3.25029e-06
 Reference value :  3.25039e-06
 Reference value :  3.25058e-06
 Reference value :  3.25092e-06
 Reference value :  3.25134e-06
 Reference value :  3.25187e-06
 Reference value :  3.25248e-06
 Reference value :  3.25323e-06
 Reference value :  3.25411e-06
 Reference value :  3.25525e-06
 Reference value :  3.25618e-06
 Reference value :  3.25714e-06
 Reference value :  3.25822e-06
 Reference value :  3.25978e-06
 Reference value :  3.26132e-06
 Reference value :  3.26379e-06
 Reference value :  3.26680e-06
 Reference value :  3.27219e-06
 Reference value :  3.28004e-06
 Reference value :  3.29147e-06
 Reference value :  3.31264e-06
 Reference value :  3.35499e-06
 Reference value :  3.43405e-06
 Reference value :  3.50000e-06
 Reference value :  3.50001e-06
 Reference value :  3.50003e-06
 Reference value :  3.50007e-06
 Reference value :  3.50010e-06
 Reference value :  3.50010e-06
 Reference value :  3.50013e-06
 Reference value :  3.50016e-06
 Reference value :  3.50036e-06
 Reference value :  3.50053e-06
 Reference value :  3.50087e-06
 Reference value :  3.50144e-06
 Reference value :  3.50221e-06
 Reference value :  3.50284e-06
 Reference value :  3.50351e-06
 Reference value :  3.50420e-06
 Reference value :  3.50516e-06
 Reference value :  3.50613e-06
 Reference value :  3.50708e-06
 Reference value :  3.50857e-06
 Reference value :  3.50992e-06
 Reference value :  3.51128e-06
 Reference value :  3.51280e-06
 Reference value :  3.51436e-06
 Reference value :  3.51604e-06
 Reference value :  3.51788e-06
 Reference value :  3.51980e-06
 Reference value :  3.52364e-06
 Reference value :  3.53132e-06
 Reference value :  3.54402e-06
 Reference value :  3.56943e-06
 Reference value :  3.61656e-06
 Reference value :  3.71083e-06
 Reference value :  3.75010e-06
 Reference value :  3.75011e-06
 Reference value :  3.75013e-06
 Reference value :  3.75017e-06
 Reference value :  3.75020e-06
 Reference value :  3.75020e-06
 Reference value :  3.75020e-06
 Reference value :  3.75021e-06
 Reference value :  3.75021e-06
 Reference value :  3.75022e-06
 Reference value :  3.75025e-06
 Reference value :  3.75030e-06
 Reference value :  3.75039e-06
 Reference value :  3.75059e-06
 Reference value :  3.75094e-06
 Reference value :  3.75136e-06
 Reference value :  3.75188e-06
 Reference value :  3.75249e-06
 Reference value :  3.75325e-06
 Reference value :  3.75413e-06
 Reference value :  3.75531e-06
 Reference value :  3.75623e-06
 Reference value :  3.75720e-06
 Reference value :  3.75823e-06
 Reference value :  3.75934e-06
 Reference value :  3.76056e-06
 Reference value :  3.76184e-06
 Reference value :  3.76324e-06
 Reference value :  3.76536e-06
 Reference value :  3.76769e-06
 Reference value :  3.77128e-06
 Reference value :  3.77696e-06
 Reference value :  3.78831e-06
 Reference value :  3.81102e-06
 Reference value :  3.85643e-06
 Reference value :  3.94725e-06
 Reference value :  4.00000e-06
 Reference value :  4.00001e-06
 Reference value :  4.00003e-06
 Reference value :  4.00007e-06
 Reference value :  4.00010e-06
 Reference value :  4.00010e-06
 Reference value :  4.00011e-06
 Reference value :  4.00013e-06
 Reference value :  4.00016e-06
 Reference value :  4.00023e-06
 Reference value :  4.00036e-06
 Reference value :  4.00053e-06
 Reference value :  4.00087e-06
 Reference value :  4.00144e-06
 Reference value :  4.00221e-06
 Reference value :  4.00288e-06
 Reference value :  4.00356e-06
 Reference value :  4.00427e-06
 Reference value :  4.00513e-06
 Reference value :  4.00590e-06
 Reference value :  4.00673e-06
 Reference value :  4.00780e-06
 Reference value :  4.00879e-06
 Reference value :  4.00975e-06
 Reference value :  4.01077e-06
 Reference value :  4.01208e-06
 Reference value :  4.01371e-06
 Reference value :  4.01491e-06
 Reference value :  4.01628e-06
 Reference value :  4.01767e-06
 Reference value :  4.01926e-06
 Reference value :  4.02096e-06
 Reference value :  4.02258e-06
 Reference value :  4.02412e-06
 Reference value :  4.02562e-06
 Reference value :  4.02895e-06
 Reference value :  4.03120e-06
 Reference value :  4.03360e-06
 Reference value :  4.03819e-06
 Reference value :  4.04313e-06
 Reference value :  4.04850e-06
 Reference value :  4.05407e-06
 Reference value :  4.05675e-06
 Reference value :  4.05936e-06
 Reference value :  4.06237e-06
 Reference value :  4.06516e-06
 Reference value :  4.07020e-06
 Reference value :  4.07573e-06
 Reference value :  4.08422e-06
 Reference value :  4.09695e-06
 Reference value :  4.11476e-06
 Reference value :  4.13750e-06
 Reference value :  4.16447e-06
 Reference value :  4.19585e-06
 Reference value :  4.24075e-06
 Reference value :  4.25010e-06
 Reference value :  4.25011e-06
 Reference value :  4.25013e-06
 Reference value :  4.25017e-06
 Reference value :  4.25020e-06
 Reference value :  4.25020e-06
 Reference value :  4.25020e-06
 Reference value :  4.25021e-06
 Reference value :  4.25021e-06
 Reference value :  4.25022e-06
 Reference value :  4.25025e-06
 Reference value :  4.25029e-06
 Reference value :  4.25039e-06
 Reference value :  4.25058e-06
 Reference value :  4.25092e-06
 Reference value :  4.25134e-06
 Reference value :  4.25187e-06
 Reference value :  4.25248e-06
 Reference value :  4.25323e-06
 Reference value :  4.25411e-06
 Reference value :  4.25530e-06
 Reference value :  4.25619e-06
 Reference value :  4.25713e-06
 Reference value :  4.25819e-06
 Reference value :  4.25959e-06
 Reference value :  4.26103e-06
 Reference value :  4.26348e-06
 Reference value :  4.27129e-06
 Reference value :  4.28120e-06
 Reference value :  4.29990e-06
 Reference value :  4.33604e-06
 Reference value :  4.40719e-06
 Reference value :  4.50000e-06
 Reference value :  4.50001e-06
 Reference value :  4.50003e-06
 Reference value :  4.50007e-06
 Reference value :  4.50010e-06
 Reference value :  4.50010e-06
 Reference value :  4.50011e-06
 Reference value :  4.50013e-06
 Reference value :  4.50016e-06
 Reference value :  4.50023e-06
 Reference value :  4.50036e-06
 Reference value :  4.50053e-06
 Reference value :  4.50087e-06
 Reference value :  4.50145e-06
 Reference value :  4.50221e-06
 Reference value :  4.50288e-06
 Reference value :  4.50356e-06
 Reference value :  4.50426e-06
 Reference value :  4.50524e-06
 Reference value :  4.50619e-06
 Reference value :  4.50715e-06
 Reference value :  4.50858e-06
 Reference value :  4.50997e-06
 Reference value :  4.51121e-06
 Reference value :  4.51250e-06
 Reference value :  4.51380e-06
 Reference value :  4.51533e-06
 Reference value :  4.51699e-06
 Reference value :  4.51873e-06
 Reference value :  4.52222e-06
 Reference value :  4.52919e-06
 Reference value :  4.54099e-06
 Reference value :  4.56458e-06
 Reference value :  4.60888e-06
 Reference value :  4.69175e-06
 Reference value :  4.75010e-06
 Reference value :  4.75011e-06
 Reference value :  4.75013e-06
 Reference value :  4.75017e-06
 Reference value :  4.75020e-06
 Reference value :  4.75020e-06
 Reference value :  4.75020e-06
 Reference value :  4.75021e-06
 Reference value :  4.75021e-06
 Reference value :  4.75022e-06
 Reference value :  4.75025e-06
 Reference value :  4.75030e-06
 Reference value :  4.75039e-06
 Reference value :  4.75059e-06
 Reference value :  4.75093e-06
 Reference value :  4.75136e-06
 Reference value :  4.75188e-06
 Reference value :  4.75249e-06
 Reference value :  4.75325e-06
 Reference value :  4.75413e-06
 Reference value :  4.75531e-06
 Reference value :  4.75623e-06
 Reference value :  4.75719e-06
 Reference value :  4.75822e-06
 Reference value :  4.75933e-06
 Reference value :  4.76056e-06
 Reference value :  4.76300e-06
 Reference value :  4.76567e-06
 Reference value :  4.77033e-06
 Reference value :  4.77886e-06
 Reference value :  4.79593e-06
 Reference value :  4.82940e-06
 Reference value :  4.89522e-06
 Reference value :  5.00001e-06
 Reference value :  5.00003e-06
 Reference value :  5.00007e-06
 Reference value :  5.00010e-06
 Reference value :  5.00010e-06
 Reference value :  5.00013e-06
 Reference value :  5.00023e-06
 Reference value :  5.00036e-06
 Reference value :  5.00053e-06
 Reference value :  5.00087e-06
 Reference value :  5.00145e-06
 Reference value :  5.00221e-06
 Reference value :  5.00288e-06
 Reference value :  5.00356e-06
 Reference value :  5.00427e-06
 Reference value :  5.00525e-06
 Reference value :  5.00603e-06
 Reference value :  5.00686e-06
 Reference value :  5.00785e-06
 Reference value :  5.00873e-06
 Reference value :  5.00970e-06
 Reference value :  5.01067e-06
 Reference value :  5.01191e-06
 Reference value :  5.01363e-06
 Reference value :  5.01583e-06
 Reference value :  5.01810e-06
 Reference value :  5.02039e-06
 Reference value :  5.02206e-06
 Reference value :  5.02362e-06
 Reference value :  5.02524e-06
 Reference value :  5.02694e-06
 Reference value :  5.02898e-06
 Reference value :  5.03086e-06
 Reference value :  5.03363e-06
 Reference value :  5.03790e-06
 Reference value :  5.04996e-06
 Reference value :  5.05496e-06
 Reference value :  5.06020e-06
 Reference value :  5.06466e-06
 Reference value :  5.06991e-06
 Reference value :  5.07708e-06
 Reference value :  5.08312e-06
 Reference value :  5.09023e-06
 Reference value :  5.10046e-06
 Reference value :  5.11828e-06
 Reference value :  5.14887e-06
 Reference value :  5.20316e-06
 Reference value :  5.25010e-06
 Reference value :  5.25011e-06
 Reference value :  5.25013e-06
 Reference value :  5.25017e-06
 Reference value :  5.25020e-06
 Reference value :  5.25020e-06
 Reference value :  5.25020e-06
 Reference value :  5.25021e-06
 Reference value :  5.25021e-06
 Reference value :  5.25022e-06
 Reference value :  5.25025e-06
 Reference value :  5.25030e-06
 Reference value :  5.25039e-06
 Reference value :  5.25059e-06
 Reference value :  5.25094e-06
 Reference value :  5.25136e-06
 Reference value :  5.25188e-06
 Reference value :  5.25249e-06
 Reference value :  5.25325e-06
 Reference value :  5.25413e-06
 Reference value :  5.25527e-06
 Reference value :  5.25622e-06
 Reference value :  5.25719e-06
 Reference value :  5.25829e-06
 Reference value :  5.25984e-06
 Reference value :  5.26147e-06
 Reference value :  5.26386e-06
 Reference value :  5.26703e-06
 Reference value :  5.27250e-06
 Reference value :  5.28345e-06
 Reference value :  5.30248e-06
 Reference value :  5.33972e-06
 Reference value :  5.41012e-06
 Reference value :  5.50000e-06
 Reference value :  5.50001e-06
 Reference value :  5.50007e-06
 Reference value :  5.50010e-06
 Reference value :  5.50013e-06
 Reference value :  5.50016e-06
 Reference value :  5.50023e-06
 Reference value :  5.50036e-06
 Reference value :  5.50053e-06
 Reference value :  5.50087e-06
 Reference value :  5.50145e-06
 Reference value :  5.50221e-06
 Reference value :  5.50284e-06
 Reference value :  5.50350e-06
 Reference value :  5.50419e-06
 Reference value :  5.50515e-06
 Reference value :  5.50612e-06
 Reference value :  5.50707e-06
 Reference value :  5.50855e-06
 Reference value :  5.50991e-06
 Reference value :  5.51120e-06
 Reference value :  5.51257e-06
 Reference value :  5.51385e-06
 Reference value :  5.51534e-06
 Reference value :  5.51686e-06
 Reference value :  5.51856e-06
 Reference value :  5.52197e-06
 Reference value :  5.52878e-06
 Reference value :  5.54034e-06
 Reference value :  5.56347e-06
 Reference value :  5.60697e-06
 Reference value :  5.69397e-06
 Reference value :  5.75010e-06
 Reference value :  5.75011e-06
 Reference value :  5.75013e-06
 Reference value :  5.75017e-06
 Reference value :  5.75020e-06
 Reference value :  5.75020e-06
 Reference value :  5.75020e-06
 Reference value :  5.75021e-06
 Reference value :  5.75021e-06
 Reference value :  5.75022e-06
 Reference value :  5.75025e-06
 Reference value :  5.75030e-06
 Reference value :  5.75039e-06
 Reference value :  5.75059e-06
 Reference value :  5.75094e-06
 Reference value :  5.75136e-06
 Reference value :  5.75188e-06
 Reference value :  5.75249e-06
 Reference value :  5.75326e-06
 Reference value :  5.75413e-06
 Reference value :  5.75531e-06
 Reference value :  5.75623e-06
 Reference value :  5.75720e-06
 Reference value :  5.75823e-06
 Reference value :  5.75934e-06
 Reference value :  5.76056e-06
 Reference value :  5.76184e-06
 Reference value :  5.76324e-06
 Reference value :  5.76536e-06
 Reference value :  5.76769e-06
 Reference value :  5.77129e-06
 Reference value :  5.77698e-06
 Reference value :  5.78836e-06
 Reference value :  5.81112e-06
 Reference value :  5.85616e-06
 Reference value :  5.94624e-06
 Reference value :  6.00000e-06
 Reference value :  6.00001e-06
 Reference value :  6.00003e-06
 Reference value :  6.00007e-06
 Reference value :  6.00010e-06
 Reference value :  6.00010e-06
 Reference value :  6.00011e-06
 Reference value :  6.00013e-06
 Reference value :  6.00016e-06
 Reference value :  6.00023e-06
 Reference value :  6.00036e-06
 Reference value :  6.00053e-06
 Reference value :  6.00087e-06
 Reference value :  6.00144e-06
 Reference value :  6.00221e-06
 Reference value :  6.00288e-06
 Reference value :  6.00356e-06
 Reference value :  6.00427e-06
 Reference value :  6.00514e-06
 Reference value :  6.00590e-06
 Reference value :  6.00673e-06
 Reference value :  6.00781e-06
 Reference value :  6.00879e-06
 Reference value :  6.00970e-06
 Reference value :  6.01079e-06
 Reference value :  6.01200e-06
 Reference value :  6.01389e-06
 Reference value :  6.01525e-06
 Reference value :  6.01673e-06
 Reference value :  6.01822e-06
 Reference value :  6.01980e-06
 Reference value :  6.02117e-06
 Reference value :  6.02233e-06
 Reference value :  6.02356e-06
 Reference value :  6.02481e-06
 Reference value :  6.02611e-06
 Reference value :  6.02781e-06
 Reference value :  6.02942e-06
 Reference value :  6.03214e-06
 Reference value :  6.03467e-06
 Reference value :  6.03972e-06
 Reference value :  6.04548e-06
 Reference value :  6.05122e-06
 Reference value :  6.05700e-06
 Reference value :  6.06398e-06
 Reference value :  6.07193e-06
 Reference value :  6.08701e-06
 Reference value :  6.11430e-06
 Reference value :  6.14724e-06
 Reference value :  6.18057e-06
 Reference value :  6.21173e-06
 Reference value :  6.23787e-06
 Reference value :  6.25010e-06
 Reference value :  6.25011e-06
 Reference value :  6.25013e-06
 Reference value :  6.25017e-06
 Reference value :  6.25020e-06
 Reference value :  6.25020e-06
 Reference value :  6.25020e-06
 Reference value :  6.25021e-06
 Reference value :  6.25021e-06
 Reference value :  6.25022e-06
 Reference value :  6.25025e-06
 Reference value :  6.25029e-06
 Reference value :  6.25039e-06
 Reference value :  6.25058e-06
 Reference value :  6.25092e-06
 Reference value :  6.25135e-06
 Reference value :  6.25187e-06
 Reference value :  6.25248e-06
 Reference value :  6.25324e-06
 Reference value :  6.25411e-06
 Reference value :  6.25527e-06
 Reference value :  6.25615e-06
 Reference value :  6.25709e-06
 Reference value :  6.25814e-06
 Reference value :  6.25955e-06
 Reference value :  6.26099e-06
 Reference value :  6.26344e-06
 Reference value :  6.26626e-06
 Reference value :  6.27120e-06
 Reference value :  6.28107e-06
 Reference value :  6.29950e-06
 Reference value :  6.33535e-06
 Reference value :  6.40574e-06
 Reference value :  6.50001e-06
 Reference value :  6.50003e-06
 Reference value :  6.50007e-06
 Reference value :  6.50010e-06
 Reference value :  6.50010e-06
 Reference value :  6.50011e-06
 Reference value :  6.50013e-06
 Reference value :  6.50016e-06
 Reference value :  6.50023e-06
 Reference value :  6.50036e-06
 Reference value :  6.50053e-06
 Reference value :  6.50087e-06
 Reference value :  6.50145e-06
 Reference value :  6.50221e-06
 Reference value :  6.50284e-06
 Reference value :  6.50350e-06
 Reference value :  6.50419e-06
 Reference value :  6.50515e-06
 Reference value :  6.50611e-06
 Reference value :  6.50705e-06
 Reference value :  6.50853e-06
 Reference value :  6.50989e-06
 Reference value :  6.51126e-06
 Reference value :  6.51281e-06
 Reference value :  6.51420e-06
 Reference value :  6.51572e-06
 Reference value :  6.51723e-06
 Reference value :  6.51901e-06
 Reference value :  6.52257e-06
 Reference value :  6.52843e-06
 Reference value :  6.54013e-06
 Reference value :  6.56220e-06
 Reference value :  6.60307e-06
 Reference value :  6.68480e-06
 Reference value :  6.75011e-06
 Reference value :  6.75017e-06
 Reference value :  6.75020e-06
 Reference value :  6.75020e-06
 Reference value :  6.75020e-06
 Reference value :  6.75021e-06
 Reference value :  6.75022e-06
 Reference value :  6.75030e-06
 Reference value :  6.75039e-06
 Reference value :  6.75059e-06
 Reference value :  6.75094e-06
 Reference value :  6.75136e-06
 Reference value :  6.75188e-06
 Reference value :  6.75249e-06
 Reference value :  6.75326e-06
 Reference value :  6.75413e-06
 Reference value :  6.75531e-06
 Reference value :  6.75623e-06
 Reference value :  6.75720e-06
 Reference value :  6.75823e-06
 Reference value :  6.75934e-06
 Reference value :  6.76058e-06
 Reference value :  6.76186e-06
 Reference value :  6.76326e-06
 Reference value :  6.76539e-06
 Reference value :  6.76770e-06
 Reference value :  6.77134e-06
 Reference value :  6.77708e-06
 Reference value :  6.78855e-06
 Reference value :  6.81149e-06
 Reference value :  6.85650e-06
 Reference value :  6.94651e-06
 Reference value :  7.00000e-06
 Reference value :  7.00001e-06
 Reference value :  7.00003e-06
 Reference value :  7.00007e-06
 Reference value :  7.00010e-06
 Reference value :  7.00010e-06
 Reference value :  7.00011e-06
 Reference value :  7.00013e-06
 Reference value :  7.00016e-06
 Reference value :  7.00023e-06
 Reference value :  7.00036e-06
 Reference value :  7.00053e-06
 Reference value :  7.00087e-06
 Reference value :  7.00144e-06
 Reference value :  7.00221e-06
 Reference value :  7.00288e-06
 Reference value :  7.00356e-06
 Reference value :  7.00427e-06
 Reference value :  7.00513e-06
 Reference value :  7.00590e-06
 Reference value :  7.00672e-06
 Reference value :  7.00780e-06
 Reference value :  7.00878e-06
 Reference value :  7.00974e-06
 Reference value :  7.01204e-06
 Reference value :  7.01385e-06
 Reference value :  7.01516e-06
 Reference value :  7.01664e-06
 Reference value :  7.01813e-06
 Reference value :  7.01977e-06
 Reference value :  7.02133e-06
 Reference value :  7.02243e-06
 Reference value :  7.02356e-06
 Reference value :  7.02471e-06
 Reference value :  7.02602e-06
 Reference value :  7.02739e-06
 Reference value :  7.02883e-06
 Reference value :  7.03088e-06
 Reference value :  7.03721e-06
 Reference value :  7.04340e-06
 Reference value :  7.04929e-06
 Reference value :  7.05625e-06
 Reference value :  7.06598e-06
 Reference value :  7.07643e-06
 Reference value :  7.08359e-06
 Reference value :  7.09167e-06
 Reference value :  7.10031e-06
 Reference value :  7.12925e-06
 Reference value :  7.21288e-06
 Reference value :  7.25011e-06
 Reference value :  7.25017e-06
 Reference value :  7.25020e-06
 Reference value :  7.25020e-06
 Reference value :  7.25021e-06
 Reference value :  7.25021e-06
 Reference value :  7.25022e-06
 Reference value :  7.25025e-06
 Reference value :  7.25030e-06
 Reference value :  7.25039e-06
 Reference value :  7.25059e-06
 Reference value :  7.25094e-06
 Reference value :  7.25136e-06
 Reference value :  7.25188e-06
 Reference value :  7.25249e-06
 Reference value :  7.25326e-06
 Reference value :  7.25414e-06
 Reference value :  7.25531e-06
 Reference value :  7.25624e-06
 Reference value :  7.25721e-06
 Reference value :  7.25829e-06
 Reference value :  7.25986e-06
 Reference value :  7.26139e-06
 Reference value :  7.26383e-06
 Reference value :  7.26694e-06
 Reference value :  7.27252e-06
 Reference value :  7.28367e-06
 Reference value :  7.30272e-06
 Reference value :  7.34068e-06
 Reference value :  7.41027e-06
 Reference value :  7.47261e-06
 Reference value :  7.50000e-06
 Reference value :  7.50001e-06
 Reference value :  7.50003e-06
 Reference value :  7.50007e-06
 Reference value :  7.50010e-06
 Reference value :  7.50010e-06
 Reference value :  7.50011e-06
 Reference value :  7.50013e-06
 Reference value :  7.50016e-06
 Reference value :  7.50023e-06
 Reference value :  7.50036e-06
 Reference value :  7.50053e-06
 Reference value :  7.50087e-06
 Reference value :  7.50149e-06
 Reference value :  7.50218e-06
 Reference value :  7.50276e-06
 Reference value :  7.50341e-06
 Reference value :  7.50408e-06
 Reference value :  7.50502e-06
 Reference value :  7.50592e-06
 Reference value :  7.50688e-06
 Reference value :  7.50814e-06
 Reference value :  7.50958e-06
 Reference value :  7.51118e-06
 Reference value :  7.51263e-06
 Reference value :  7.51415e-06
 Reference value :  7.51597e-06
 Reference value :  7.51790e-06
 Reference value :  7.52373e-06
 Reference value :  7.54010e-06
 Reference value :  7.55973e-06
 Reference value :  7.59232e-06
 Reference value :  7.65363e-06
 Reference value :  7.75010e-06
 Reference value :  7.75011e-06
 Reference value :  7.75013e-06
 Reference value :  7.75017e-06
 Reference value :  7.75020e-06
 Reference value :  7.75020e-06
 Reference value :  7.75020e-06
 Reference value :  7.75021e-06
 Reference value :  7.75021e-06
 Reference value :  7.75022e-06
 Reference value :  7.75025e-06
 Reference value :  7.75030e-06
 Reference value :  7.75039e-06
 Reference value :  7.75059e-06
 Reference value :  7.75094e-06
 Reference value :  7.75136e-06
 Reference value :  7.75188e-06
 Reference value :  7.75249e-06
 Reference value :  7.75326e-06
 Reference value :  7.75414e-06
 Reference value :  7.75532e-06
 Reference value :  7.75625e-06
 Reference value :  7.75723e-06
 Reference value :  7.75825e-06
 Reference value :  7.75938e-06
 Reference value :  7.76062e-06
 Reference value :  7.76189e-06
 Reference value :  7.76329e-06
 Reference value :  7.76544e-06
 Reference value :  7.76774e-06
 Reference value :  7.77148e-06
 Reference value :  7.77734e-06
 Reference value :  7.78906e-06
 Reference value :  7.81188e-06
 Reference value :  7.85359e-06
 Reference value :  7.93700e-06
 Reference value :  8.00000e-06
 Reference value :  8.00001e-06
 Reference value :  8.00003e-06
 Reference value :  8.00007e-06
 Reference value :  8.00010e-06
 Reference value :  8.00010e-06
 Reference value :  8.00011e-06
 Reference value :  8.00013e-06
 Reference value :  8.00016e-06
 Reference value :  8.00023e-06
 Reference value :  8.00036e-06
 Reference value :  8.00053e-06
 Reference value :  8.00087e-06
 Reference value :  8.00149e-06
 Reference value :  8.00218e-06
 Reference value :  8.00280e-06
 Reference value :  8.00345e-06
 Reference value :  8.00414e-06
 Reference value :  8.00497e-06
 Reference value :  8.00584e-06
 Reference value :  8.00671e-06
 Reference value :  8.00765e-06
 Reference value :  8.00876e-06
 Reference value :  8.00976e-06
 Reference value :  8.01079e-06
 Reference value :  8.01216e-06
 Reference value :  8.01383e-06
 Reference value :  8.01515e-06
 Reference value :  8.01663e-06
 Reference value :  8.01827e-06
 Reference value :  8.02000e-06
 Reference value :  8.02215e-06
 Reference value :  8.02430e-06
 Reference value :  8.02746e-06
 Reference value :  8.03030e-06
 Reference value :  8.03383e-06
 Reference value :  8.03675e-06
 Reference value :  8.03974e-06
 Reference value :  8.04311e-06
 Reference value :  8.04667e-06
 Reference value :  8.05140e-06
 Reference value :  8.06086e-06
 Reference value :  8.07449e-06
 Reference value :  8.09999e-06
 Reference value :  8.13247e-06
 Reference value :  8.19336e-06
 Reference value :  8.25010e-06
 Reference value :  8.25011e-06
 Reference value :  8.25013e-06
 Reference value :  8.25017e-06
 Reference value :  8.25020e-06
 Reference value :  8.25020e-06
 Reference value :  8.25020e-06
 Reference value :  8.25021e-06
 Reference value :  8.25021e-06
 Reference value :  8.25022e-06
 Reference value :  8.25025e-06
 Reference value :  8.25029e-06
 Reference value :  8.25039e-06
 Reference value :  8.25058e-06
 Reference value :  8.25096e-06
 Reference value :  8.25137e-06
 Reference value :  8.25188e-06
 Reference value :  8.25249e-06
 Reference value :  8.25326e-06
 Reference value :  8.25414e-06
 Reference value :  8.25521e-06
 Reference value :  8.25639e-06
 Reference value :  8.25778e-06
 Reference value :  8.25938e-06
 Reference value :  8.26117e-06
 Reference value :  8.26394e-06
 Reference value :  8.26660e-06
 Reference value :  8.27173e-06
 Reference value :  8.28199e-06
 Reference value :  8.29786e-06
 Reference value :  8.32961e-06
 Reference value :  8.38451e-06
 Reference value :  8.49431e-06
 Reference value :  8.50000e-06
 Reference value :  8.50001e-06
 Reference value :  8.50003e-06
 Reference value :  8.50007e-06
 Reference value :  8.50010e-06
 Reference value :  8.50010e-06
 Reference value :  8.50011e-06
 Reference value :  8.50013e-06
 Reference value :  8.50016e-06
 Reference value :  8.50023e-06
 Reference value :  8.50036e-06
 Reference value :  8.50063e-06
 Reference value :  8.50109e-06
 Reference value :  8.50179e-06
 Reference value :  8.50270e-06
 Reference value :  8.50337e-06
 Reference value :  8.50416e-06
 Reference value :  8.50499e-06
 Reference value :  8.50590e-06
 Reference value :  8.50699e-06
 Reference value :  8.50838e-06
 Reference value :  8.51010e-06
 Reference value :  8.51233e-06
 Reference value :  8.51413e-06
 Reference value :  8.51601e-06
 Reference value :  8.51838e-06
 Reference value :  8.52088e-06
 Reference value :  8.52369e-06
 Reference value :  8.52792e-06
 Reference value :  8.53304e-06
 Reference value :  8.53674e-06
 Reference value :  8.54001e-06
 Reference value :  8.54280e-06
 Reference value :  8.54524e-06
 Reference value :  8.54722e-06
 Reference value :  8.54900e-06
 Reference value :  8.55084e-06
 Reference value :  8.55293e-06
 Reference value :  8.55564e-06
 Reference value :  8.55946e-06
 Reference value :  8.56527e-06
 Reference value :  8.57418e-06
 Reference value :  8.58815e-06
 Reference value :  8.60008e-06
 Reference value :  8.61368e-06
 Reference value :  8.62892e-06
 Reference value :  8.65939e-06
 Reference value :  8.69619e-06
 Reference value :  8.75010e-06
 Reference value :  8.75011e-06
 Reference value :  8.75013e-06
 Reference value :  8.75017e-06
 Reference value :  8.75020e-06
 Reference value :  8.75020e-06
 Reference value :  8.75020e-06
 Reference value :  8.75021e-06
 Reference value :  8.75021e-06
 Reference value :  8.75022e-06
 Reference value :  8.75025e-06
 Reference value :  8.75029e-06
 Reference value :  8.75039e-06
 Reference value :  8.75058e-06
 Reference value :  8.75096e-06
 Reference value :  8.75137e-06
 Reference value :  8.75190e-06
 Reference value :  8.75251e-06
 Reference value :  8.75330e-06
 Reference value :  8.75418e-06
 Reference value :  8.75539e-06
 Reference value :  8.75634e-06
 Reference value :  8.75734e-06
 Reference value :  8.75842e-06
 Reference value :  8.75999e-06
 Reference value :  8.76153e-06
 Reference value :  8.76395e-06
 Reference value :  8.76724e-06
 Reference value :  8.77326e-06
 Reference value :  8.78532e-06
 Reference value :  8.80506e-06
 Reference value :  8.84453e-06
 Reference value :  8.91476e-06
 Reference value :  8.97951e-06
 Reference value :  9.00000e-06
No. of Data Rows : 1423
ngspice-44 done
