
Note: Compatibility modes selected: hs a


Circuit: ** sch_path: /home/samantha/cace/sar-adc-using-sky130-pdk/runs/run_2025-09-08_19-13-21/parameters/sampling_rate/run_2/sampling_rate.sch

option SCALE: Scale is set to 1e-06 for instance and model parameters
option SCALE: Scale is set to 1e-06 for instance and model parameters
option SCALE: Scale is set to 1e-06 for instance and model parameters
option SCALE: Scale is set to 1e-06 for instance and model parameters
Doing analysis at TEMP = 27.000000 and TNOM = 27.000000

Using KLU as Direct Linear Solver
Operating point simulation skipped by 'uic',
  now using transient initial conditions.
 Reference value :  1.00000e-12
 Reference value :  1.02772e-12
 Reference value :  1.08316e-12
 Reference value :  1.19404e-12
 Reference value :  1.33846e-12
 Reference value :  1.62729e-12
 Reference value :  2.20497e-12
 Reference value :  3.05079e-12
 Reference value :  3.95621e-12
 Reference value :  5.17312e-12
 Reference value :  6.90433e-12
 Reference value :  1.02142e-11
 Reference value :  1.39020e-11
 Reference value :  2.08028e-11
 Reference value :  2.75394e-11
 Reference value :  3.66355e-11
 Reference value :  4.76399e-11
 Reference value :  6.51237e-11
 Reference value :  8.57518e-11
 Reference value :  1.00000e-10
 Reference value :  1.01171e-10
 Reference value :  1.03512e-10
 Reference value :  1.08194e-10
 Reference value :  1.17559e-10
 Reference value :  1.36289e-10
 Reference value :  1.73748e-10
 Reference value :  2.48666e-10
 Reference value :  3.98503e-10
 Reference value :  5.58314e-10
 Reference value :  8.19284e-10
 Reference value :  1.16443e-09
 Reference value :  1.58726e-09
 Reference value :  2.21915e-09
 Reference value :  2.87496e-09
 Reference value :  3.95005e-09
 Reference value :  4.76523e-09
 Reference value :  5.63322e-09
 Reference value :  6.84914e-09
 Reference value :  8.00020e-09
 Reference value :  9.35369e-09
 Reference value :  1.02443e-08
 Reference value :  1.10700e-08
 Reference value :  1.19969e-08
 Reference value :  1.29987e-08
 Reference value :  1.50022e-08
 Reference value :  1.77440e-08
 Reference value :  2.17869e-08
 Reference value :  2.67804e-08
 Reference value :  3.05496e-08
 Reference value :  3.44589e-08
 Reference value :  3.76579e-08
 Reference value :  4.10414e-08
 Reference value :  4.53466e-08
 Reference value :  5.17769e-08
 Reference value :  6.15171e-08
 Reference value :  7.88384e-08
 Reference value :  1.11307e-07
 Reference value :  1.69120e-07
 Reference value :  2.40634e-07
 Reference value :  2.50100e-07
 Reference value :  2.50110e-07
 Reference value :  2.50130e-07
 Reference value :  2.50170e-07
 Reference value :  2.50200e-07
 Reference value :  2.50201e-07
 Reference value :  2.50202e-07
 Reference value :  2.50204e-07
 Reference value :  2.50208e-07
 Reference value :  2.50216e-07
 Reference value :  2.50233e-07
 Reference value :  2.50267e-07
 Reference value :  2.50334e-07
 Reference value :  2.50415e-07
 Reference value :  2.50578e-07
 Reference value :  2.50739e-07
 Reference value :  2.51063e-07
 Reference value :  2.51432e-07
 Reference value :  2.52000e-07
 Reference value :  2.52605e-07
 Reference value :  2.53306e-07
 Reference value :  2.54251e-07
 Reference value :  2.55267e-07
 Reference value :  2.56209e-07
 Reference value :  2.57137e-07
 Reference value :  2.58161e-07
 Reference value :  2.59137e-07
 Reference value :  2.60806e-07
 Reference value :  2.63151e-07
 Reference value :  2.65566e-07
 Reference value :  2.69724e-07
 Reference value :  2.75757e-07
 Reference value :  2.87823e-07
 Reference value :  3.11956e-07
 Reference value :  3.56894e-07
 Reference value :  4.46771e-07
 Reference value :  5.00000e-07
 Reference value :  5.00010e-07
 Reference value :  5.00030e-07
 Reference value :  5.00070e-07
 Reference value :  5.00100e-07
 Reference value :  5.00104e-07
 Reference value :  5.00113e-07
 Reference value :  5.00130e-07
 Reference value :  5.00164e-07
 Reference value :  5.00231e-07
 Reference value :  5.00367e-07
 Reference value :  5.00555e-07
 Reference value :  5.00931e-07
 Reference value :  5.01441e-07
 Reference value :  5.01988e-07
 Reference value :  5.02572e-07
 Reference value :  5.03299e-07
 Reference value :  5.03988e-07
 Reference value :  5.04868e-07
 Reference value :  5.05732e-07
 Reference value :  5.06712e-07
 Reference value :  5.07962e-07
 Reference value :  5.09473e-07
 Reference value :  5.11506e-07
 Reference value :  5.13937e-07
 Reference value :  5.15835e-07
 Reference value :  5.17886e-07
 Reference value :  5.20499e-07
 Reference value :  5.23122e-07
 Reference value :  5.25907e-07
 Reference value :  5.31216e-07
 Reference value :  5.38401e-07
 Reference value :  5.48666e-07
 Reference value :  5.69196e-07
 Reference value :  5.99927e-07
 Reference value :  6.61388e-07
 Reference value :  7.50100e-07
 Reference value :  7.50110e-07
 Reference value :  7.50130e-07
 Reference value :  7.50170e-07
 Reference value :  7.50200e-07
 Reference value :  7.50201e-07
 Reference value :  7.50202e-07
 Reference value :  7.50205e-07
 Reference value :  7.50211e-07
 Reference value :  7.50223e-07
 Reference value :  7.50247e-07
 Reference value :  7.50295e-07
 Reference value :  7.50390e-07
 Reference value :  7.50580e-07
 Reference value :  7.50956e-07
 Reference value :  7.51478e-07
 Reference value :  7.52136e-07
 Reference value :  7.52787e-07
 Reference value :  7.53536e-07
 Reference value :  7.54575e-07
 Reference value :  7.55319e-07
 Reference value :  7.56167e-07
 Reference value :  7.56918e-07
 Reference value :  7.57752e-07
 Reference value :  7.58784e-07
 Reference value :  7.59912e-07
 Reference value :  7.62169e-07
 Reference value :  7.64635e-07
 Reference value :  7.68698e-07
 Reference value :  7.74006e-07
 Reference value :  7.84623e-07
 Reference value :  8.05856e-07
 Reference value :  8.48322e-07
 Reference value :  9.33255e-07
 Reference value :  1.00000e-06
 Reference value :  1.00001e-06
 Reference value :  1.00003e-06
 Reference value :  1.00007e-06
 Reference value :  1.00010e-06
 Reference value :  1.00010e-06
 Reference value :  1.00011e-06
 Reference value :  1.00013e-06
 Reference value :  1.00016e-06
 Reference value :  1.00023e-06
 Reference value :  1.00037e-06
 Reference value :  1.00055e-06
 Reference value :  1.00093e-06
 Reference value :  1.00144e-06
 Reference value :  1.00198e-06
 Reference value :  1.00256e-06
 Reference value :  1.00321e-06
 Reference value :  1.00388e-06
 Reference value :  1.00467e-06
 Reference value :  1.00549e-06
 Reference value :  1.00635e-06
 Reference value :  1.00731e-06
 Reference value :  1.00811e-06
 Reference value :  1.00905e-06
 Reference value :  1.00998e-06
 Reference value :  1.01119e-06
 Reference value :  1.01294e-06
 Reference value :  1.01554e-06
 Reference value :  1.01799e-06
 Reference value :  1.02017e-06
 Reference value :  1.02200e-06
 Reference value :  1.02397e-06
 Reference value :  1.02579e-06
 Reference value :  1.02762e-06
 Reference value :  1.02996e-06
 Reference value :  1.03217e-06
 Reference value :  1.03521e-06
 Reference value :  1.03941e-06
 Reference value :  1.04517e-06
 Reference value :  1.05440e-06
 Reference value :  1.06831e-06
 Reference value :  1.09078e-06
 Reference value :  1.12710e-06
 Reference value :  1.18568e-06
 Reference value :  1.25010e-06
 Reference value :  1.25011e-06
 Reference value :  1.25013e-06
 Reference value :  1.25017e-06
 Reference value :  1.25020e-06
 Reference value :  1.25020e-06
 Reference value :  1.25020e-06
 Reference value :  1.25021e-06
 Reference value :  1.25021e-06
 Reference value :  1.25022e-06
 Reference value :  1.25025e-06
 Reference value :  1.25029e-06
 Reference value :  1.25039e-06
 Reference value :  1.25058e-06
 Reference value :  1.25091e-06
 Reference value :  1.25146e-06
 Reference value :  1.25208e-06
 Reference value :  1.25276e-06
 Reference value :  1.25349e-06
 Reference value :  1.25452e-06
 Reference value :  1.25527e-06
 Reference value :  1.25613e-06
 Reference value :  1.25702e-06
 Reference value :  1.25795e-06
 Reference value :  1.25925e-06
 Reference value :  1.26108e-06
 Reference value :  1.26327e-06
 Reference value :  1.26648e-06
 Reference value :  1.27075e-06
 Reference value :  1.27929e-06
 Reference value :  1.29638e-06
 Reference value :  1.32620e-06
 Reference value :  1.38583e-06
 Reference value :  1.49965e-06
 Reference value :  1.50000e-06
 Reference value :  1.50001e-06
 Reference value :  1.50002e-06
 Reference value :  1.50004e-06
 Reference value :  1.50008e-06
 Reference value :  1.50010e-06
 Reference value :  1.50010e-06
 Reference value :  1.50011e-06
 Reference value :  1.50012e-06
 Reference value :  1.50014e-06
 Reference value :  1.50019e-06
 Reference value :  1.50029e-06
 Reference value :  1.50044e-06
 Reference value :  1.50070e-06
 Reference value :  1.50121e-06
 Reference value :  1.50185e-06
 Reference value :  1.50259e-06
 Reference value :  1.50328e-06
 Reference value :  1.50399e-06
 Reference value :  1.50483e-06
 Reference value :  1.50568e-06
 Reference value :  1.50661e-06
 Reference value :  1.50789e-06
 Reference value :  1.50924e-06
 Reference value :  1.51042e-06
 Reference value :  1.51162e-06
 Reference value :  1.51303e-06
 Reference value :  1.51460e-06
 Reference value :  1.51610e-06
 Reference value :  1.51778e-06
 Reference value :  1.51959e-06
 Reference value :  1.52323e-06
 Reference value :  1.53051e-06
 Reference value :  1.54260e-06
 Reference value :  1.56677e-06
 Reference value :  1.61511e-06
 Reference value :  1.71180e-06
 Reference value :  1.75010e-06
 Reference value :  1.75011e-06
 Reference value :  1.75013e-06
 Reference value :  1.75017e-06
 Reference value :  1.75020e-06
 Reference value :  1.75020e-06
 Reference value :  1.75020e-06
 Reference value :  1.75021e-06
 Reference value :  1.75021e-06
 Reference value :  1.75022e-06
 Reference value :  1.75025e-06
 Reference value :  1.75029e-06
 Reference value :  1.75039e-06
 Reference value :  1.75058e-06
 Reference value :  1.75091e-06
 Reference value :  1.75146e-06
 Reference value :  1.75209e-06
 Reference value :  1.75275e-06
 Reference value :  1.75348e-06
 Reference value :  1.75451e-06
 Reference value :  1.75524e-06
 Reference value :  1.75610e-06
 Reference value :  1.75684e-06
 Reference value :  1.75766e-06
 Reference value :  1.75867e-06
 Reference value :  1.75979e-06
 Reference value :  1.76203e-06
 Reference value :  1.76440e-06
 Reference value :  1.76838e-06
 Reference value :  1.77335e-06
 Reference value :  1.78328e-06
 Reference value :  1.80314e-06
 Reference value :  1.84286e-06
 Reference value :  1.92229e-06
 Reference value :  2.00000e-06
 Reference value :  2.00001e-06
 Reference value :  2.00003e-06
 Reference value :  2.00007e-06
 Reference value :  2.00010e-06
 Reference value :  2.00010e-06
 Reference value :  2.00011e-06
 Reference value :  2.00013e-06
 Reference value :  2.00016e-06
 Reference value :  2.00023e-06
 Reference value :  2.00037e-06
 Reference value :  2.00054e-06
 Reference value :  2.00090e-06
 Reference value :  2.00141e-06
 Reference value :  2.00196e-06
 Reference value :  2.00255e-06
 Reference value :  2.00320e-06
 Reference value :  2.00387e-06
 Reference value :  2.00463e-06
 Reference value :  2.00545e-06
 Reference value :  2.00635e-06
 Reference value :  2.00728e-06
 Reference value :  2.00814e-06
 Reference value :  2.00905e-06
 Reference value :  2.01000e-06
 Reference value :  2.01123e-06
 Reference value :  2.01292e-06
 Reference value :  2.01555e-06
 Reference value :  2.01806e-06
 Reference value :  2.02023e-06
 Reference value :  2.02202e-06
 Reference value :  2.02375e-06
 Reference value :  2.02560e-06
 Reference value :  2.02732e-06
 Reference value :  2.02946e-06
 Reference value :  2.03163e-06
 Reference value :  2.03428e-06
 Reference value :  2.03812e-06
 Reference value :  2.04309e-06
 Reference value :  2.04783e-06
 Reference value :  2.05277e-06
 Reference value :  2.05730e-06
 Reference value :  2.06131e-06
 Reference value :  2.06554e-06
 Reference value :  2.06953e-06
 Reference value :  2.07416e-06
 Reference value :  2.08065e-06
 Reference value :  2.08725e-06
 Reference value :  2.09350e-06
 Reference value :  2.10124e-06
 Reference value :  2.11278e-06
 Reference value :  2.13310e-06
 Reference value :  2.17255e-06
 Reference value :  2.24597e-06
 Reference value :  2.25010e-06
 Reference value :  2.25011e-06
 Reference value :  2.25013e-06
 Reference value :  2.25017e-06
 Reference value :  2.25020e-06
 Reference value :  2.25020e-06
 Reference value :  2.25020e-06
 Reference value :  2.25021e-06
 Reference value :  2.25021e-06
 Reference value :  2.25022e-06
 Reference value :  2.25025e-06
 Reference value :  2.25029e-06
 Reference value :  2.25039e-06
 Reference value :  2.25058e-06
 Reference value :  2.25091e-06
 Reference value :  2.25146e-06
 Reference value :  2.25208e-06
 Reference value :  2.25275e-06
 Reference value :  2.25348e-06
 Reference value :  2.25450e-06
 Reference value :  2.25522e-06
 Reference value :  2.25604e-06
 Reference value :  2.25693e-06
 Reference value :  2.25785e-06
 Reference value :  2.25910e-06
 Reference value :  2.26102e-06
 Reference value :  2.26316e-06
 Reference value :  2.26631e-06
 Reference value :  2.27051e-06
 Reference value :  2.27893e-06
 Reference value :  2.29575e-06
 Reference value :  2.32511e-06
 Reference value :  2.38382e-06
 Reference value :  2.47774e-06
 Reference value :  2.50000e-06
 Reference value :  2.50001e-06
 Reference value :  2.50003e-06
 Reference value :  2.50007e-06
 Reference value :  2.50010e-06
 Reference value :  2.50010e-06
 Reference value :  2.50011e-06
 Reference value :  2.50013e-06
 Reference value :  2.50016e-06
 Reference value :  2.50023e-06
 Reference value :  2.50037e-06
 Reference value :  2.50054e-06
 Reference value :  2.50090e-06
 Reference value :  2.50141e-06
 Reference value :  2.50196e-06
 Reference value :  2.50251e-06
 Reference value :  2.50321e-06
 Reference value :  2.50385e-06
 Reference value :  2.50462e-06
 Reference value :  2.50543e-06
 Reference value :  2.50634e-06
 Reference value :  2.50757e-06
 Reference value :  2.50879e-06
 Reference value :  2.51012e-06
 Reference value :  2.51161e-06
 Reference value :  2.51308e-06
 Reference value :  2.51454e-06
 Reference value :  2.51610e-06
 Reference value :  2.51768e-06
 Reference value :  2.51946e-06
 Reference value :  2.52303e-06
 Reference value :  2.53016e-06
 Reference value :  2.54265e-06
 Reference value :  2.56764e-06
 Reference value :  2.61762e-06
 Reference value :  2.71757e-06
 Reference value :  2.75010e-06
 Reference value :  2.75011e-06
 Reference value :  2.75013e-06
 Reference value :  2.75017e-06
 Reference value :  2.75020e-06
 Reference value :  2.75020e-06
 Reference value :  2.75020e-06
 Reference value :  2.75021e-06
 Reference value :  2.75021e-06
 Reference value :  2.75022e-06
 Reference value :  2.75025e-06
 Reference value :  2.75029e-06
 Reference value :  2.75039e-06
 Reference value :  2.75058e-06
 Reference value :  2.75091e-06
 Reference value :  2.75145e-06
 Reference value :  2.75208e-06
 Reference value :  2.75275e-06
 Reference value :  2.75348e-06
 Reference value :  2.75450e-06
 Reference value :  2.75524e-06
 Reference value :  2.75609e-06
 Reference value :  2.75684e-06
 Reference value :  2.75766e-06
 Reference value :  2.75867e-06
 Reference value :  2.75979e-06
 Reference value :  2.76093e-06
 Reference value :  2.76260e-06
 Reference value :  2.76447e-06
 Reference value :  2.76698e-06
 Reference value :  2.77020e-06
 Reference value :  2.77483e-06
 Reference value :  2.78409e-06
 Reference value :  2.80022e-06
 Reference value :  2.83248e-06
 Reference value :  2.89700e-06
 Reference value :  3.00000e-06
 Reference value :  3.00001e-06
 Reference value :  3.00003e-06
 Reference value :  3.00007e-06
 Reference value :  3.00010e-06
 Reference value :  3.00010e-06
 Reference value :  3.00011e-06
 Reference value :  3.00013e-06
 Reference value :  3.00016e-06
 Reference value :  3.00023e-06
 Reference value :  3.00037e-06
 Reference value :  3.00054e-06
 Reference value :  3.00090e-06
 Reference value :  3.00141e-06
 Reference value :  3.00196e-06
 Reference value :  3.00254e-06
 Reference value :  3.00319e-06
 Reference value :  3.00387e-06
 Reference value :  3.00463e-06
 Reference value :  3.00544e-06
 Reference value :  3.00628e-06
 Reference value :  3.00707e-06
 Reference value :  3.00795e-06
 Reference value :  3.00886e-06
 Reference value :  3.00977e-06
 Reference value :  3.01109e-06
 Reference value :  3.01258e-06
 Reference value :  3.01474e-06
 Reference value :  3.01631e-06
 Reference value :  3.01799e-06
 Reference value :  3.01978e-06
 Reference value :  3.02119e-06
 Reference value :  3.02259e-06
 Reference value :  3.02426e-06
 Reference value :  3.02585e-06
 Reference value :  3.02734e-06
 Reference value :  3.02929e-06
 Reference value :  3.03172e-06
 Reference value :  3.03434e-06
 Reference value :  3.03891e-06
 Reference value :  3.04516e-06
 Reference value :  3.05540e-06
 Reference value :  3.07238e-06
 Reference value :  3.09616e-06
 Reference value :  3.11886e-06
 Reference value :  3.14533e-06
 Reference value :  3.16850e-06
 Reference value :  3.19484e-06
 Reference value :  3.22082e-06
 Reference value :  3.24487e-06
 Reference value :  3.25010e-06
 Reference value :  3.25011e-06
 Reference value :  3.25013e-06
 Reference value :  3.25017e-06
 Reference value :  3.25020e-06
 Reference value :  3.25020e-06
 Reference value :  3.25020e-06
 Reference value :  3.25021e-06
 Reference value :  3.25021e-06
 Reference value :  3.25022e-06
 Reference value :  3.25025e-06
 Reference value :  3.25029e-06
 Reference value :  3.25039e-06
 Reference value :  3.25058e-06
 Reference value :  3.25091e-06
 Reference value :  3.25145e-06
 Reference value :  3.25208e-06
 Reference value :  3.25275e-06
 Reference value :  3.25348e-06
 Reference value :  3.25450e-06
 Reference value :  3.25523e-06
 Reference value :  3.25608e-06
 Reference value :  3.25695e-06
 Reference value :  3.25786e-06
 Reference value :  3.25914e-06
 Reference value :  3.26093e-06
 Reference value :  3.26313e-06
 Reference value :  3.26621e-06
 Reference value :  3.27047e-06
 Reference value :  3.27897e-06
 Reference value :  3.29591e-06
 Reference value :  3.32508e-06
 Reference value :  3.38341e-06
 Reference value :  3.50000e-06
 Reference value :  3.50001e-06
 Reference value :  3.50003e-06
 Reference value :  3.50007e-06
 Reference value :  3.50010e-06
 Reference value :  3.50010e-06
 Reference value :  3.50011e-06
 Reference value :  3.50013e-06
 Reference value :  3.50016e-06
 Reference value :  3.50023e-06
 Reference value :  3.50037e-06
 Reference value :  3.50055e-06
 Reference value :  3.50091e-06
 Reference value :  3.50142e-06
 Reference value :  3.50197e-06
 Reference value :  3.50251e-06
 Reference value :  3.50321e-06
 Reference value :  3.50385e-06
 Reference value :  3.50463e-06
 Reference value :  3.50544e-06
 Reference value :  3.50630e-06
 Reference value :  3.50754e-06
 Reference value :  3.50872e-06
 Reference value :  3.51007e-06
 Reference value :  3.51161e-06
 Reference value :  3.51303e-06
 Reference value :  3.51439e-06
 Reference value :  3.51587e-06
 Reference value :  3.51736e-06
 Reference value :  3.51909e-06
 Reference value :  3.52256e-06
 Reference value :  3.52814e-06
 Reference value :  3.53929e-06
 Reference value :  3.56161e-06
 Reference value :  3.60625e-06
 Reference value :  3.69552e-06
 Reference value :  3.75010e-06
 Reference value :  3.75011e-06
 Reference value :  3.75013e-06
 Reference value :  3.75017e-06
 Reference value :  3.75020e-06
 Reference value :  3.75020e-06
 Reference value :  3.75020e-06
 Reference value :  3.75021e-06
 Reference value :  3.75021e-06
 Reference value :  3.75022e-06
 Reference value :  3.75025e-06
 Reference value :  3.75029e-06
 Reference value :  3.75039e-06
 Reference value :  3.75058e-06
 Reference value :  3.75091e-06
 Reference value :  3.75145e-06
 Reference value :  3.75208e-06
 Reference value :  3.75275e-06
 Reference value :  3.75348e-06
 Reference value :  3.75450e-06
 Reference value :  3.75524e-06
 Reference value :  3.75609e-06
 Reference value :  3.75684e-06
 Reference value :  3.75766e-06
 Reference value :  3.75867e-06
 Reference value :  3.75979e-06
 Reference value :  3.76093e-06
 Reference value :  3.76259e-06
 Reference value :  3.76447e-06
 Reference value :  3.76699e-06
 Reference value :  3.77021e-06
 Reference value :  3.77484e-06
 Reference value :  3.78411e-06
 Reference value :  3.80014e-06
 Reference value :  3.83222e-06
 Reference value :  3.89637e-06
 Reference value :  4.00000e-06
 Reference value :  4.00001e-06
 Reference value :  4.00003e-06
 Reference value :  4.00007e-06
 Reference value :  4.00010e-06
 Reference value :  4.00010e-06
 Reference value :  4.00011e-06
 Reference value :  4.00013e-06
 Reference value :  4.00016e-06
 Reference value :  4.00023e-06
 Reference value :  4.00037e-06
 Reference value :  4.00054e-06
 Reference value :  4.00090e-06
 Reference value :  4.00141e-06
 Reference value :  4.00196e-06
 Reference value :  4.00254e-06
 Reference value :  4.00319e-06
 Reference value :  4.00387e-06
 Reference value :  4.00463e-06
 Reference value :  4.00544e-06
 Reference value :  4.00622e-06
 Reference value :  4.00702e-06
 Reference value :  4.00788e-06
 Reference value :  4.00878e-06
 Reference value :  4.00969e-06
 Reference value :  4.01097e-06
 Reference value :  4.01246e-06
 Reference value :  4.01389e-06
 Reference value :  4.01545e-06
 Reference value :  4.01724e-06
 Reference value :  4.01886e-06
 Reference value :  4.02057e-06
 Reference value :  4.02181e-06
 Reference value :  4.02320e-06
 Reference value :  4.02454e-06
 Reference value :  4.02597e-06
 Reference value :  4.02766e-06
 Reference value :  4.02934e-06
 Reference value :  4.03223e-06
 Reference value :  4.03490e-06
 Reference value :  4.04024e-06
 Reference value :  4.04708e-06
 Reference value :  4.05481e-06
 Reference value :  4.06197e-06
 Reference value :  4.06682e-06
 Reference value :  4.07145e-06
 Reference value :  4.07524e-06
 Reference value :  4.07875e-06
 Reference value :  4.08485e-06
 Reference value :  4.09100e-06
 Reference value :  4.10140e-06
 Reference value :  4.11494e-06
 Reference value :  4.13445e-06
 Reference value :  4.16028e-06
 Reference value :  4.19139e-06
 Reference value :  4.23649e-06
 Reference value :  4.25010e-06
 Reference value :  4.25011e-06
 Reference value :  4.25013e-06
 Reference value :  4.25017e-06
 Reference value :  4.25020e-06
 Reference value :  4.25020e-06
 Reference value :  4.25020e-06
 Reference value :  4.25021e-06
 Reference value :  4.25021e-06
 Reference value :  4.25022e-06
 Reference value :  4.25025e-06
 Reference value :  4.25029e-06
 Reference value :  4.25039e-06
 Reference value :  4.25058e-06
 Reference value :  4.25091e-06
 Reference value :  4.25145e-06
 Reference value :  4.25208e-06
 Reference value :  4.25275e-06
 Reference value :  4.25348e-06
 Reference value :  4.25450e-06
 Reference value :  4.25524e-06
 Reference value :  4.25611e-06
 Reference value :  4.25698e-06
 Reference value :  4.25790e-06
 Reference value :  4.25922e-06
 Reference value :  4.26096e-06
 Reference value :  4.26321e-06
 Reference value :  4.26629e-06
 Reference value :  4.27062e-06
 Reference value :  4.27930e-06
 Reference value :  4.29603e-06
 Reference value :  4.32524e-06
 Reference value :  4.38366e-06
 Reference value :  4.50000e-06
 Reference value :  4.50001e-06
 Reference value :  4.50003e-06
 Reference value :  4.50007e-06
 Reference value :  4.50010e-06
 Reference value :  4.50010e-06
 Reference value :  4.50011e-06
 Reference value :  4.50013e-06
 Reference value :  4.50016e-06
 Reference value :  4.50023e-06
 Reference value :  4.50037e-06
 Reference value :  4.50055e-06
 Reference value :  4.50091e-06
 Reference value :  4.50142e-06
 Reference value :  4.50197e-06
 Reference value :  4.50255e-06
 Reference value :  4.50320e-06
 Reference value :  4.50387e-06
 Reference value :  4.50464e-06
 Reference value :  4.50546e-06
 Reference value :  4.50632e-06
 Reference value :  4.50753e-06
 Reference value :  4.50872e-06
 Reference value :  4.50994e-06
 Reference value :  4.51126e-06
 Reference value :  4.51287e-06
 Reference value :  4.51435e-06
 Reference value :  4.51583e-06
 Reference value :  4.51740e-06
 Reference value :  4.51921e-06
 Reference value :  4.52247e-06
 Reference value :  4.52735e-06
 Reference value :  4.53709e-06
 Reference value :  4.55597e-06
 Reference value :  4.59278e-06
 Reference value :  4.66638e-06
 Reference value :  4.75010e-06
 Reference value :  4.75011e-06
 Reference value :  4.75013e-06
 Reference value :  4.75017e-06
 Reference value :  4.75020e-06
 Reference value :  4.75020e-06
 Reference value :  4.75020e-06
 Reference value :  4.75021e-06
 Reference value :  4.75021e-06
 Reference value :  4.75022e-06
 Reference value :  4.75025e-06
 Reference value :  4.75029e-06
 Reference value :  4.75039e-06
 Reference value :  4.75058e-06
 Reference value :  4.75091e-06
 Reference value :  4.75145e-06
 Reference value :  4.75208e-06
 Reference value :  4.75274e-06
 Reference value :  4.75347e-06
 Reference value :  4.75449e-06
 Reference value :  4.75522e-06
 Reference value :  4.75608e-06
 Reference value :  4.75682e-06
 Reference value :  4.75764e-06
 Reference value :  4.75865e-06
 Reference value :  4.75976e-06
 Reference value :  4.76200e-06
 Reference value :  4.76435e-06
 Reference value :  4.76832e-06
 Reference value :  4.77323e-06
 Reference value :  4.78305e-06
 Reference value :  4.80269e-06
 Reference value :  4.84078e-06
 Reference value :  4.91696e-06
 Reference value :  5.00000e-06
 Reference value :  5.00001e-06
 Reference value :  5.00003e-06
 Reference value :  5.00007e-06
 Reference value :  5.00010e-06
 Reference value :  5.00010e-06
 Reference value :  5.00011e-06
 Reference value :  5.00013e-06
 Reference value :  5.00016e-06
 Reference value :  5.00023e-06
 Reference value :  5.00037e-06
 Reference value :  5.00054e-06
 Reference value :  5.00090e-06
 Reference value :  5.00141e-06
 Reference value :  5.00196e-06
 Reference value :  5.00254e-06
 Reference value :  5.00320e-06
 Reference value :  5.00389e-06
 Reference value :  5.00465e-06
 Reference value :  5.00547e-06
 Reference value :  5.00636e-06
 Reference value :  5.00731e-06
 Reference value :  5.00809e-06
 Reference value :  5.00899e-06
 Reference value :  5.00996e-06
 Reference value :  5.01112e-06
 Reference value :  5.01297e-06
 Reference value :  5.01549e-06
 Reference value :  5.01798e-06
 Reference value :  5.02018e-06
 Reference value :  5.02189e-06
 Reference value :  5.02349e-06
 Reference value :  5.02507e-06
 Reference value :  5.02678e-06
 Reference value :  5.02870e-06
 Reference value :  5.03072e-06
 Reference value :  5.03339e-06
 Reference value :  5.03711e-06
 Reference value :  5.04182e-06
 Reference value :  5.04918e-06
 Reference value :  5.05743e-06
 Reference value :  5.06302e-06
 Reference value :  5.06823e-06
 Reference value :  5.07367e-06
 Reference value :  5.08009e-06
 Reference value :  5.08611e-06
 Reference value :  5.09373e-06
 Reference value :  5.10290e-06
 Reference value :  5.12107e-06
 Reference value :  5.14409e-06
 Reference value :  5.18375e-06
 Reference value :  5.25010e-06
 Reference value :  5.25011e-06
 Reference value :  5.25013e-06
 Reference value :  5.25017e-06
 Reference value :  5.25020e-06
 Reference value :  5.25020e-06
 Reference value :  5.25020e-06
 Reference value :  5.25021e-06
 Reference value :  5.25021e-06
 Reference value :  5.25022e-06
 Reference value :  5.25025e-06
 Reference value :  5.25030e-06
 Reference value :  5.25039e-06
 Reference value :  5.25059e-06
 Reference value :  5.25093e-06
 Reference value :  5.25146e-06
 Reference value :  5.25210e-06
 Reference value :  5.25275e-06
 Reference value :  5.25349e-06
 Reference value :  5.25451e-06
 Reference value :  5.25522e-06
 Reference value :  5.25604e-06
 Reference value :  5.25693e-06
 Reference value :  5.25785e-06
 Reference value :  5.25910e-06
 Reference value :  5.26104e-06
 Reference value :  5.26318e-06
 Reference value :  5.26634e-06
 Reference value :  5.27055e-06
 Reference value :  5.27896e-06
 Reference value :  5.29577e-06
 Reference value :  5.32459e-06
 Reference value :  5.38222e-06
 Reference value :  5.49749e-06
 Reference value :  5.50000e-06
 Reference value :  5.50001e-06
 Reference value :  5.50003e-06
 Reference value :  5.50007e-06
 Reference value :  5.50010e-06
 Reference value :  5.50010e-06
 Reference value :  5.50011e-06
 Reference value :  5.50013e-06
 Reference value :  5.50016e-06
 Reference value :  5.50023e-06
 Reference value :  5.50037e-06
 Reference value :  5.50054e-06
 Reference value :  5.50090e-06
 Reference value :  5.50141e-06
 Reference value :  5.50196e-06
 Reference value :  5.50251e-06
 Reference value :  5.50321e-06
 Reference value :  5.50385e-06
 Reference value :  5.50462e-06
 Reference value :  5.50544e-06
 Reference value :  5.50635e-06
 Reference value :  5.50757e-06
 Reference value :  5.50879e-06
 Reference value :  5.51004e-06
 Reference value :  5.51138e-06
 Reference value :  5.51301e-06
 Reference value :  5.51452e-06
 Reference value :  5.51605e-06
 Reference value :  5.51782e-06
 Reference value :  5.51979e-06
 Reference value :  5.52321e-06
 Reference value :  5.52823e-06
 Reference value :  5.53746e-06
 Reference value :  5.55443e-06
 Reference value :  5.58539e-06
 Reference value :  5.64586e-06
 Reference value :  5.75010e-06
 Reference value :  5.75011e-06
 Reference value :  5.75013e-06
 Reference value :  5.75017e-06
 Reference value :  5.75020e-06
 Reference value :  5.75020e-06
 Reference value :  5.75020e-06
 Reference value :  5.75021e-06
 Reference value :  5.75021e-06
 Reference value :  5.75022e-06
 Reference value :  5.75025e-06
 Reference value :  5.75029e-06
 Reference value :  5.75039e-06
 Reference value :  5.75058e-06
 Reference value :  5.75091e-06
 Reference value :  5.75145e-06
 Reference value :  5.75208e-06
 Reference value :  5.75274e-06
 Reference value :  5.75347e-06
 Reference value :  5.75449e-06
 Reference value :  5.75523e-06
 Reference value :  5.75609e-06
 Reference value :  5.75684e-06
 Reference value :  5.75766e-06
 Reference value :  5.75867e-06
 Reference value :  5.75978e-06
 Reference value :  5.76093e-06
 Reference value :  5.76258e-06
 Reference value :  5.76446e-06
 Reference value :  5.76697e-06
 Reference value :  5.77019e-06
 Reference value :  5.77481e-06
 Reference value :  5.78405e-06
 Reference value :  5.80043e-06
 Reference value :  5.83317e-06
 Reference value :  5.89866e-06
 Reference value :  6.00000e-06
 Reference value :  6.00001e-06
 Reference value :  6.00003e-06
 Reference value :  6.00007e-06
 Reference value :  6.00010e-06
 Reference value :  6.00010e-06
 Reference value :  6.00011e-06
 Reference value :  6.00013e-06
 Reference value :  6.00016e-06
 Reference value :  6.00023e-06
 Reference value :  6.00037e-06
 Reference value :  6.00054e-06
 Reference value :  6.00090e-06
 Reference value :  6.00141e-06
 Reference value :  6.00196e-06
 Reference value :  6.00255e-06
 Reference value :  6.00319e-06
 Reference value :  6.00387e-06
 Reference value :  6.00463e-06
 Reference value :  6.00544e-06
 Reference value :  6.00629e-06
 Reference value :  6.00708e-06
 Reference value :  6.00782e-06
 Reference value :  6.00867e-06
 Reference value :  6.00957e-06
 Reference value :  6.01070e-06
 Reference value :  6.01224e-06
 Reference value :  6.01382e-06
 Reference value :  6.01536e-06
 Reference value :  6.01717e-06
 Reference value :  6.01882e-06
 Reference value :  6.02053e-06
 Reference value :  6.02177e-06
 Reference value :  6.02291e-06
 Reference value :  6.02417e-06
 Reference value :  6.02559e-06
 Reference value :  6.02687e-06
 Reference value :  6.02847e-06
 Reference value :  6.03080e-06
 Reference value :  6.03307e-06
 Reference value :  6.03718e-06
 Reference value :  6.04337e-06
 Reference value :  6.05258e-06
 Reference value :  6.06135e-06
 Reference value :  6.07109e-06
 Reference value :  6.08507e-06
 Reference value :  6.10589e-06
 Reference value :  6.12381e-06
 Reference value :  6.14262e-06
 Reference value :  6.16070e-06
 Reference value :  6.18002e-06
 Reference value :  6.20358e-06
 Reference value :  6.25010e-06
 Reference value :  6.25011e-06
 Reference value :  6.25013e-06
 Reference value :  6.25017e-06
 Reference value :  6.25020e-06
 Reference value :  6.25020e-06
 Reference value :  6.25020e-06
 Reference value :  6.25021e-06
 Reference value :  6.25021e-06
 Reference value :  6.25022e-06
 Reference value :  6.25025e-06
 Reference value :  6.25029e-06
 Reference value :  6.25039e-06
 Reference value :  6.25058e-06
 Reference value :  6.25092e-06
 Reference value :  6.25145e-06
 Reference value :  6.25208e-06
 Reference value :  6.25275e-06
 Reference value :  6.25348e-06
 Reference value :  6.25450e-06
 Reference value :  6.25523e-06
 Reference value :  6.25607e-06
 Reference value :  6.25695e-06
 Reference value :  6.25785e-06
 Reference value :  6.25914e-06
 Reference value :  6.26092e-06
 Reference value :  6.26312e-06
 Reference value :  6.26619e-06
 Reference value :  6.27045e-06
 Reference value :  6.27897e-06
 Reference value :  6.29564e-06
 Reference value :  6.32446e-06
 Reference value :  6.38211e-06
 Reference value :  6.49741e-06
 Reference value :  6.50000e-06
 Reference value :  6.50001e-06
 Reference value :  6.50003e-06
 Reference value :  6.50007e-06
 Reference value :  6.50010e-06
 Reference value :  6.50010e-06
 Reference value :  6.50011e-06
 Reference value :  6.50013e-06
 Reference value :  6.50016e-06
 Reference value :  6.50023e-06
 Reference value :  6.50037e-06
 Reference value :  6.50054e-06
 Reference value :  6.50090e-06
 Reference value :  6.50141e-06
 Reference value :  6.50196e-06
 Reference value :  6.50251e-06
 Reference value :  6.50320e-06
 Reference value :  6.50385e-06
 Reference value :  6.50462e-06
 Reference value :  6.50543e-06
 Reference value :  6.50629e-06
 Reference value :  6.50753e-06
 Reference value :  6.50871e-06
 Reference value :  6.51008e-06
 Reference value :  6.51161e-06
 Reference value :  6.51300e-06
 Reference value :  6.51441e-06
 Reference value :  6.51590e-06
 Reference value :  6.51760e-06
 Reference value :  6.51951e-06
 Reference value :  6.52299e-06
 Reference value :  6.52807e-06
 Reference value :  6.53780e-06
 Reference value :  6.55591e-06
 Reference value :  6.58945e-06
 Reference value :  6.65546e-06
 Reference value :  6.75010e-06
 Reference value :  6.75011e-06
 Reference value :  6.75013e-06
 Reference value :  6.75017e-06
 Reference value :  6.75020e-06
 Reference value :  6.75020e-06
 Reference value :  6.75020e-06
 Reference value :  6.75021e-06
 Reference value :  6.75021e-06
 Reference value :  6.75022e-06
 Reference value :  6.75025e-06
 Reference value :  6.75029e-06
 Reference value :  6.75039e-06
 Reference value :  6.75058e-06
 Reference value :  6.75091e-06
 Reference value :  6.75145e-06
 Reference value :  6.75208e-06
 Reference value :  6.75275e-06
 Reference value :  6.75348e-06
 Reference value :  6.75450e-06
 Reference value :  6.75523e-06
 Reference value :  6.75609e-06
 Reference value :  6.75683e-06
 Reference value :  6.75766e-06
 Reference value :  6.75867e-06
 Reference value :  6.75978e-06
 Reference value :  6.76093e-06
 Reference value :  6.76259e-06
 Reference value :  6.76446e-06
 Reference value :  6.76697e-06
 Reference value :  6.77019e-06
 Reference value :  6.77481e-06
 Reference value :  6.78406e-06
 Reference value :  6.80013e-06
 Reference value :  6.83226e-06
 Reference value :  6.89653e-06
 Reference value :  7.00000e-06
 Reference value :  7.00001e-06
 Reference value :  7.00003e-06
 Reference value :  7.00007e-06
 Reference value :  7.00010e-06
 Reference value :  7.00010e-06
 Reference value :  7.00011e-06
 Reference value :  7.00013e-06
 Reference value :  7.00016e-06
 Reference value :  7.00023e-06
 Reference value :  7.00037e-06
 Reference value :  7.00054e-06
 Reference value :  7.00090e-06
 Reference value :  7.00141e-06
 Reference value :  7.00196e-06
 Reference value :  7.00254e-06
 Reference value :  7.00319e-06
 Reference value :  7.00387e-06
 Reference value :  7.00463e-06
 Reference value :  7.00544e-06
 Reference value :  7.00622e-06
 Reference value :  7.00703e-06
 Reference value :  7.00782e-06
 Reference value :  7.00872e-06
 Reference value :  7.00960e-06
 Reference value :  7.01079e-06
 Reference value :  7.01245e-06
 Reference value :  7.01423e-06
 Reference value :  7.01578e-06
 Reference value :  7.01739e-06
 Reference value :  7.01909e-06
 Reference value :  7.02066e-06
 Reference value :  7.02189e-06
 Reference value :  7.02306e-06
 Reference value :  7.02457e-06
 Reference value :  7.02593e-06
 Reference value :  7.02741e-06
 Reference value :  7.02906e-06
 Reference value :  7.03132e-06
 Reference value :  7.03378e-06
 Reference value :  7.03823e-06
 Reference value :  7.04388e-06
 Reference value :  7.04911e-06
 Reference value :  7.05732e-06
 Reference value :  7.07164e-06
 Reference value :  7.09486e-06
 Reference value :  7.12338e-06
 Reference value :  7.15916e-06
 Reference value :  7.18142e-06
 Reference value :  7.20591e-06
 Reference value :  7.24083e-06
 Reference value :  7.25010e-06
 Reference value :  7.25011e-06
 Reference value :  7.25013e-06
 Reference value :  7.25017e-06
 Reference value :  7.25020e-06
 Reference value :  7.25020e-06
 Reference value :  7.25020e-06
 Reference value :  7.25021e-06
 Reference value :  7.25021e-06
 Reference value :  7.25022e-06
 Reference value :  7.25025e-06
 Reference value :  7.25030e-06
 Reference value :  7.25039e-06
 Reference value :  7.25059e-06
 Reference value :  7.25093e-06
 Reference value :  7.25146e-06
 Reference value :  7.25211e-06
 Reference value :  7.25276e-06
 Reference value :  7.25350e-06
 Reference value :  7.25452e-06
 Reference value :  7.25522e-06
 Reference value :  7.25603e-06
 Reference value :  7.25694e-06
 Reference value :  7.25787e-06
 Reference value :  7.25909e-06
 Reference value :  7.26113e-06
 Reference value :  7.26322e-06
 Reference value :  7.26647e-06
 Reference value :  7.27063e-06
 Reference value :  7.27895e-06
 Reference value :  7.29561e-06
 Reference value :  7.31235e-06
 Reference value :  7.33137e-06
 Reference value :  7.35174e-06
 Reference value :  7.37293e-06
 Reference value :  7.41532e-06
 Reference value :  7.50000e-06
 Reference value :  7.50001e-06
 Reference value :  7.50003e-06
 Reference value :  7.50007e-06
 Reference value :  7.50010e-06
 Reference value :  7.50010e-06
 Reference value :  7.50011e-06
 Reference value :  7.50013e-06
 Reference value :  7.50016e-06
 Reference value :  7.50023e-06
 Reference value :  7.50037e-06
 Reference value :  7.50055e-06
 Reference value :  7.50090e-06
 Reference value :  7.50141e-06
 Reference value :  7.50195e-06
 Reference value :  7.50250e-06
 Reference value :  7.50319e-06
 Reference value :  7.50383e-06
 Reference value :  7.50461e-06
 Reference value :  7.50543e-06
 Reference value :  7.50634e-06
 Reference value :  7.50756e-06
 Reference value :  7.50878e-06
 Reference value :  7.51016e-06
 Reference value :  7.51173e-06
 Reference value :  7.51315e-06
 Reference value :  7.51452e-06
 Reference value :  7.51601e-06
 Reference value :  7.51757e-06
 Reference value :  7.51936e-06
 Reference value :  7.52277e-06
 Reference value :  7.52770e-06
 Reference value :  7.53754e-06
 Reference value :  7.55679e-06
 Reference value :  7.59319e-06
 Reference value :  7.66599e-06
 Reference value :  7.75010e-06
 Reference value :  7.75011e-06
 Reference value :  7.75013e-06
 Reference value :  7.75017e-06
 Reference value :  7.75020e-06
 Reference value :  7.75020e-06
 Reference value :  7.75020e-06
 Reference value :  7.75021e-06
 Reference value :  7.75021e-06
 Reference value :  7.75022e-06
 Reference value :  7.75025e-06
 Reference value :  7.75029e-06
 Reference value :  7.75039e-06
 Reference value :  7.75058e-06
 Reference value :  7.75092e-06
 Reference value :  7.75145e-06
 Reference value :  7.75209e-06
 Reference value :  7.75275e-06
 Reference value :  7.75348e-06
 Reference value :  7.75450e-06
 Reference value :  7.75523e-06
 Reference value :  7.75607e-06
 Reference value :  7.75680e-06
 Reference value :  7.75762e-06
 Reference value :  7.75863e-06
 Reference value :  7.75975e-06
 Reference value :  7.76088e-06
 Reference value :  7.76256e-06
 Reference value :  7.76439e-06
 Reference value :  7.76692e-06
 Reference value :  7.77010e-06
 Reference value :  7.77471e-06
 Reference value :  7.78393e-06
 Reference value :  7.79904e-06
 Reference value :  7.82928e-06
 Reference value :  7.88975e-06
 Reference value :  8.00000e-06
 Reference value :  8.00001e-06
 Reference value :  8.00003e-06
 Reference value :  8.00007e-06
 Reference value :  8.00010e-06
 Reference value :  8.00010e-06
 Reference value :  8.00011e-06
 Reference value :  8.00013e-06
 Reference value :  8.00016e-06
 Reference value :  8.00023e-06
 Reference value :  8.00037e-06
 Reference value :  8.00055e-06
 Reference value :  8.00090e-06
 Reference value :  8.00141e-06
 Reference value :  8.00195e-06
 Reference value :  8.00253e-06
 Reference value :  8.00318e-06
 Reference value :  8.00386e-06
 Reference value :  8.00462e-06
 Reference value :  8.00543e-06
 Reference value :  8.00628e-06
 Reference value :  8.00709e-06
 Reference value :  8.00790e-06
 Reference value :  8.00881e-06
 Reference value :  8.00970e-06
 Reference value :  8.01090e-06
 Reference value :  8.01256e-06
 Reference value :  8.01441e-06
 Reference value :  8.01598e-06
 Reference value :  8.01760e-06
 Reference value :  8.01921e-06
 Reference value :  8.02096e-06
 Reference value :  8.02286e-06
 Reference value :  8.02503e-06
 Reference value :  8.02834e-06
 Reference value :  8.03161e-06
 Reference value :  8.03588e-06
 Reference value :  8.03895e-06
 Reference value :  8.04225e-06
 Reference value :  8.04630e-06
 Reference value :  8.05006e-06
 Reference value :  8.05651e-06
 Reference value :  8.06724e-06
 Reference value :  8.08193e-06
 Reference value :  8.10857e-06
 Reference value :  8.15057e-06
 Reference value :  8.20411e-06
 Reference value :  8.25010e-06
 Reference value :  8.25011e-06
 Reference value :  8.25013e-06
 Reference value :  8.25017e-06
 Reference value :  8.25020e-06
 Reference value :  8.25020e-06
 Reference value :  8.25020e-06
 Reference value :  8.25021e-06
 Reference value :  8.25021e-06
 Reference value :  8.25022e-06
 Reference value :  8.25025e-06
 Reference value :  8.25030e-06
 Reference value :  8.25039e-06
 Reference value :  8.25059e-06
 Reference value :  8.25098e-06
 Reference value :  8.25148e-06
 Reference value :  8.25216e-06
 Reference value :  8.25279e-06
 Reference value :  8.25355e-06
 Reference value :  8.25459e-06
 Reference value :  8.25557e-06
 Reference value :  8.25697e-06
 Reference value :  8.25857e-06
 Reference value :  8.26006e-06
 Reference value :  8.26258e-06
 Reference value :  8.26526e-06
 Reference value :  8.26967e-06
 Reference value :  8.27642e-06
 Reference value :  8.28992e-06
 Reference value :  8.31693e-06
 Reference value :  8.36931e-06
 Reference value :  8.47406e-06
 Reference value :  8.50000e-06
 Reference value :  8.50001e-06
 Reference value :  8.50003e-06
 Reference value :  8.50007e-06
 Reference value :  8.50010e-06
 Reference value :  8.50010e-06
 Reference value :  8.50011e-06
 Reference value :  8.50013e-06
 Reference value :  8.50016e-06
 Reference value :  8.50023e-06
 Reference value :  8.50037e-06
 Reference value :  8.50063e-06
 Reference value :  8.50106e-06
 Reference value :  8.50180e-06
 Reference value :  8.50254e-06
 Reference value :  8.50315e-06
 Reference value :  8.50389e-06
 Reference value :  8.50465e-06
 Reference value :  8.50549e-06
 Reference value :  8.50654e-06
 Reference value :  8.50762e-06
 Reference value :  8.50925e-06
 Reference value :  8.51106e-06
 Reference value :  8.51264e-06
 Reference value :  8.51427e-06
 Reference value :  8.51632e-06
 Reference value :  8.51890e-06
 Reference value :  8.52162e-06
 Reference value :  8.52705e-06
 Reference value :  8.53305e-06
 Reference value :  8.53724e-06
 Reference value :  8.54082e-06
 Reference value :  8.54388e-06
 Reference value :  8.54653e-06
 Reference value :  8.54865e-06
 Reference value :  8.55076e-06
 Reference value :  8.55269e-06
 Reference value :  8.55510e-06
 Reference value :  8.55794e-06
 Reference value :  8.56170e-06
 Reference value :  8.56715e-06
 Reference value :  8.57475e-06
 Reference value :  8.58685e-06
 Reference value :  8.59986e-06
 Reference value :  8.61530e-06
 Reference value :  8.62992e-06
 Reference value :  8.65491e-06
 Reference value :  8.69052e-06
 Reference value :  8.74288e-06
 Reference value :  8.75010e-06
 Reference value :  8.75011e-06
 Reference value :  8.75013e-06
 Reference value :  8.75017e-06
 Reference value :  8.75020e-06
 Reference value :  8.75020e-06
 Reference value :  8.75020e-06
 Reference value :  8.75021e-06
 Reference value :  8.75021e-06
 Reference value :  8.75022e-06
 Reference value :  8.75025e-06
 Reference value :  8.75030e-06
 Reference value :  8.75039e-06
 Reference value :  8.75059e-06
 Reference value :  8.75097e-06
 Reference value :  8.75148e-06
 Reference value :  8.75216e-06
 Reference value :  8.75280e-06
 Reference value :  8.75354e-06
 Reference value :  8.75446e-06
 Reference value :  8.75521e-06
 Reference value :  8.75607e-06
 Reference value :  8.75688e-06
 Reference value :  8.75776e-06
 Reference value :  8.75913e-06
 Reference value :  8.76057e-06
 Reference value :  8.76296e-06
 Reference value :  8.76574e-06
 Reference value :  8.77018e-06
 Reference value :  8.77762e-06
 Reference value :  8.79251e-06
 Reference value :  8.81963e-06
 Reference value :  8.87387e-06
 Reference value :  8.93728e-06
 Reference value :  9.00000e-06
No. of Data Rows : 1425
ngspice-44 done
