
Note: Compatibility modes selected: hs a


Circuit: ** sch_path: /home/issa/cace/sar-adc-using-sky130-pdk/runs/run_2025-09-20_12-37-38/parameters/sampling_rate/run_17/sampling_rate.sch

option SCALE: Scale is set to 1e-06 for instance and model parameters
option SCALE: Scale is set to 1e-06 for instance and model parameters
option SCALE: Scale is set to 1e-06 for instance and model parameters
option SCALE: Scale is set to 1e-06 for instance and model parameters
Doing analysis at TEMP = 27.000000 and TNOM = 27.000000

Using KLU as Direct Linear Solver
Operating point simulation skipped by 'uic',
  now using transient initial conditions.
 Reference value :  1.00000e-12
 Reference value :  1.18001e-12
 Reference value :  6.01428e-12
 Reference value :  3.00376e-11
 Reference value :  1.00000e-10
 Reference value :  1.11618e-10
 Reference value :  2.20054e-10
 Reference value :  3.43981e-10
 Reference value :  5.83789e-10
 Reference value :  1.24863e-09
 Reference value :  2.34765e-09
 Reference value :  3.94390e-09
 Reference value :  4.76623e-09
 Reference value :  6.68988e-09
 Reference value :  8.35346e-09
 Reference value :  9.64457e-09
 Reference value :  1.13012e-08
 Reference value :  1.19423e-08
 Reference value :  1.33778e-08
 Reference value :  1.74533e-08
 Reference value :  2.41426e-08
 Reference value :  3.47026e-08
 Reference value :  4.91744e-08
 Reference value :  1.00857e-07
 Reference value :  2.41258e-07
 Reference value :  2.50130e-07
 Reference value :  2.50208e-07
 Reference value :  2.50308e-07
 Reference value :  2.50522e-07
 Reference value :  2.50653e-07
 Reference value :  2.51227e-07
 Reference value :  2.51636e-07
 Reference value :  2.52678e-07
 Reference value :  2.53968e-07
 Reference value :  2.55234e-07
 Reference value :  2.56690e-07
 Reference value :  2.59101e-07
 Reference value :  2.69490e-07
 Reference value :  2.98757e-07
 Reference value :  4.10400e-07
 Reference value :  5.00010e-07
 Reference value :  5.00070e-07
 Reference value :  5.00108e-07
 Reference value :  5.00156e-07
 Reference value :  5.00337e-07
 Reference value :  5.00825e-07
 Reference value :  5.01283e-07
 Reference value :  5.02189e-07
 Reference value :  5.03256e-07
 Reference value :  5.04511e-07
 Reference value :  5.05211e-07
 Reference value :  5.07341e-07
 Reference value :  5.10263e-07
 Reference value :  5.11597e-07
 Reference value :  5.13079e-07
 Reference value :  5.16412e-07
 Reference value :  5.20487e-07
 Reference value :  5.34408e-07
 Reference value :  5.64031e-07
 Reference value :  7.50100e-07
 Reference value :  7.50130e-07
 Reference value :  7.50200e-07
 Reference value :  7.50255e-07
 Reference value :  7.50444e-07
 Reference value :  7.50948e-07
 Reference value :  7.51387e-07
 Reference value :  7.52367e-07
 Reference value :  7.53028e-07
 Reference value :  7.53778e-07
 Reference value :  7.54422e-07
 Reference value :  7.55089e-07
 Reference value :  7.56662e-07
 Reference value :  7.59176e-07
 Reference value :  7.65443e-07
 Reference value :  7.84865e-07
 Reference value :  9.19162e-07
 Reference value :  1.00001e-06
 Reference value :  1.00007e-06
 Reference value :  1.00011e-06
 Reference value :  1.00016e-06
 Reference value :  1.00022e-06
 Reference value :  1.00050e-06
 Reference value :  1.00128e-06
 Reference value :  1.00176e-06
 Reference value :  1.00219e-06
 Reference value :  1.00268e-06
 Reference value :  1.00391e-06
 Reference value :  1.00441e-06
 Reference value :  1.00557e-06
 Reference value :  1.00609e-06
 Reference value :  1.00756e-06
 Reference value :  1.00995e-06
 Reference value :  1.01142e-06
 Reference value :  1.01278e-06
 Reference value :  1.01388e-06
 Reference value :  1.01603e-06
 Reference value :  1.01708e-06
 Reference value :  1.01938e-06
 Reference value :  1.02611e-06
 Reference value :  1.05862e-06
 Reference value :  1.22163e-06
 Reference value :  1.25013e-06
 Reference value :  1.25021e-06
 Reference value :  1.25032e-06
 Reference value :  1.25095e-06
 Reference value :  1.25185e-06
 Reference value :  1.25303e-06
 Reference value :  1.25440e-06
 Reference value :  1.25573e-06
 Reference value :  1.25670e-06
 Reference value :  1.25926e-06
 Reference value :  1.27308e-06
 Reference value :  1.34624e-06
 Reference value :  1.50001e-06
 Reference value :  1.50010e-06
 Reference value :  1.50012e-06
 Reference value :  1.50034e-06
 Reference value :  1.50128e-06
 Reference value :  1.50219e-06
 Reference value :  1.50323e-06
 Reference value :  1.50443e-06
 Reference value :  1.50617e-06
 Reference value :  1.50819e-06
 Reference value :  1.51036e-06
 Reference value :  1.51289e-06
 Reference value :  1.52870e-06
 Reference value :  1.64449e-06
 Reference value :  1.75013e-06
 Reference value :  1.75021e-06
 Reference value :  1.75032e-06
 Reference value :  1.75068e-06
 Reference value :  1.75138e-06
 Reference value :  1.75236e-06
 Reference value :  1.75377e-06
 Reference value :  1.75507e-06
 Reference value :  1.75673e-06
 Reference value :  1.76146e-06
 Reference value :  1.78487e-06
 Reference value :  1.91527e-06
 Reference value :  2.00003e-06
 Reference value :  2.00011e-06
 Reference value :  2.00022e-06
 Reference value :  2.00083e-06
 Reference value :  2.00128e-06
 Reference value :  2.00219e-06
 Reference value :  2.00329e-06
 Reference value :  2.00441e-06
 Reference value :  2.00557e-06
 Reference value :  2.00609e-06
 Reference value :  2.00844e-06
 Reference value :  2.01143e-06
 Reference value :  2.01280e-06
 Reference value :  2.01493e-06
 Reference value :  2.01707e-06
 Reference value :  2.01938e-06
 Reference value :  2.02611e-06
 Reference value :  2.05879e-06
 Reference value :  2.22697e-06
 Reference value :  2.25013e-06
 Reference value :  2.25021e-06
 Reference value :  2.25032e-06
 Reference value :  2.25094e-06
 Reference value :  2.25185e-06
 Reference value :  2.25302e-06
 Reference value :  2.25440e-06
 Reference value :  2.25572e-06
 Reference value :  2.25923e-06
 Reference value :  2.27287e-06
 Reference value :  2.34400e-06
 Reference value :  2.50001e-06
 Reference value :  2.50010e-06
 Reference value :  2.50016e-06
 Reference value :  2.50050e-06
 Reference value :  2.50128e-06
 Reference value :  2.50219e-06
 Reference value :  2.50323e-06
 Reference value :  2.50443e-06
 Reference value :  2.50617e-06
 Reference value :  2.50819e-06
 Reference value :  2.51037e-06
 Reference value :  2.51289e-06
 Reference value :  2.52869e-06
 Reference value :  2.64437e-06
 Reference value :  2.75013e-06
 Reference value :  2.75021e-06
 Reference value :  2.75032e-06
 Reference value :  2.75068e-06
 Reference value :  2.75138e-06
 Reference value :  2.75235e-06
 Reference value :  2.75377e-06
 Reference value :  2.75506e-06
 Reference value :  2.75672e-06
 Reference value :  2.76144e-06
 Reference value :  2.78451e-06
 Reference value :  2.91059e-06
 Reference value :  3.00003e-06
 Reference value :  3.00011e-06
 Reference value :  3.00022e-06
 Reference value :  3.00083e-06
 Reference value :  3.00176e-06
 Reference value :  3.00268e-06
 Reference value :  3.00391e-06
 Reference value :  3.00440e-06
 Reference value :  3.00557e-06
 Reference value :  3.00671e-06
 Reference value :  3.00999e-06
 Reference value :  3.01280e-06
 Reference value :  3.01389e-06
 Reference value :  3.01603e-06
 Reference value :  3.01707e-06
 Reference value :  3.01938e-06
 Reference value :  3.02610e-06
 Reference value :  3.03772e-06
 Reference value :  3.05062e-06
 Reference value :  3.06334e-06
 Reference value :  3.06979e-06
 Reference value :  3.09490e-06
 Reference value :  3.12263e-06
 Reference value :  3.19514e-06
 Reference value :  3.25011e-06
 Reference value :  3.25020e-06
 Reference value :  3.25026e-06
 Reference value :  3.25069e-06
 Reference value :  3.25138e-06
 Reference value :  3.25236e-06
 Reference value :  3.25373e-06
 Reference value :  3.25578e-06
 Reference value :  3.25940e-06
 Reference value :  3.27309e-06
 Reference value :  3.34103e-06
 Reference value :  3.37441e-06
 Reference value :  3.39826e-06
 Reference value :  3.44629e-06
 Reference value :  3.50000e-06
 Reference value :  3.50007e-06
 Reference value :  3.50012e-06
 Reference value :  3.50034e-06
 Reference value :  3.50128e-06
 Reference value :  3.50219e-06
 Reference value :  3.50323e-06
 Reference value :  3.50442e-06
 Reference value :  3.50616e-06
 Reference value :  3.50820e-06
 Reference value :  3.51037e-06
 Reference value :  3.51288e-06
 Reference value :  3.52827e-06
 Reference value :  3.64065e-06
 Reference value :  3.75013e-06
 Reference value :  3.75021e-06
 Reference value :  3.75032e-06
 Reference value :  3.75094e-06
 Reference value :  3.75185e-06
 Reference value :  3.75302e-06
 Reference value :  3.75440e-06
 Reference value :  3.75577e-06
 Reference value :  3.75758e-06
 Reference value :  3.76554e-06
 Reference value :  3.80579e-06
 Reference value :  4.00000e-06
 Reference value :  4.00007e-06
 Reference value :  4.00012e-06
 Reference value :  4.00034e-06
 Reference value :  4.00128e-06
 Reference value :  4.00219e-06
 Reference value :  4.00329e-06
 Reference value :  4.00440e-06
 Reference value :  4.00557e-06
 Reference value :  4.00609e-06
 Reference value :  4.00844e-06
 Reference value :  4.01143e-06
 Reference value :  4.01280e-06
 Reference value :  4.01493e-06
 Reference value :  4.01707e-06
 Reference value :  4.01937e-06
 Reference value :  4.02610e-06
 Reference value :  4.03732e-06
 Reference value :  4.04601e-06
 Reference value :  4.05597e-06
 Reference value :  4.08966e-06
 Reference value :  4.17265e-06
 Reference value :  4.25011e-06
 Reference value :  4.25020e-06
 Reference value :  4.25026e-06
 Reference value :  4.25069e-06
 Reference value :  4.25138e-06
 Reference value :  4.25236e-06
 Reference value :  4.25373e-06
 Reference value :  4.25509e-06
 Reference value :  4.25787e-06
 Reference value :  4.27302e-06
 Reference value :  4.34012e-06
 Reference value :  4.50001e-06
 Reference value :  4.50010e-06
 Reference value :  4.50016e-06
 Reference value :  4.50050e-06
 Reference value :  4.50129e-06
 Reference value :  4.50218e-06
 Reference value :  4.50395e-06
 Reference value :  4.50553e-06
 Reference value :  4.50734e-06
 Reference value :  4.50903e-06
 Reference value :  4.51119e-06
 Reference value :  4.51957e-06
 Reference value :  4.58491e-06
 Reference value :  4.75011e-06
 Reference value :  4.75020e-06
 Reference value :  4.75026e-06
 Reference value :  4.75068e-06
 Reference value :  4.75138e-06
 Reference value :  4.75302e-06
 Reference value :  4.75439e-06
 Reference value :  4.75576e-06
 Reference value :  4.75757e-06
 Reference value :  4.75933e-06
 Reference value :  4.76485e-06
 Reference value :  4.78744e-06
 Reference value :  4.92598e-06
 Reference value :  5.00003e-06
 Reference value :  5.00011e-06
 Reference value :  5.00022e-06
 Reference value :  5.00083e-06
 Reference value :  5.00128e-06
 Reference value :  5.00219e-06
 Reference value :  5.00329e-06
 Reference value :  5.00441e-06
 Reference value :  5.00556e-06
 Reference value :  5.00670e-06
 Reference value :  5.00973e-06
 Reference value :  5.01071e-06
 Reference value :  5.01285e-06
 Reference value :  5.01369e-06
 Reference value :  5.01652e-06
 Reference value :  5.01883e-06
 Reference value :  5.02391e-06
 Reference value :  5.02943e-06
 Reference value :  5.03171e-06
 Reference value :  5.03639e-06
 Reference value :  5.04086e-06
 Reference value :  5.05820e-06
 Reference value :  5.08776e-06
 Reference value :  5.10494e-06
 Reference value :  5.11881e-06
 Reference value :  5.14446e-06
 Reference value :  5.19552e-06
 Reference value :  5.25010e-06
 Reference value :  5.25017e-06
 Reference value :  5.25022e-06
 Reference value :  5.25045e-06
 Reference value :  5.25138e-06
 Reference value :  5.25236e-06
 Reference value :  5.25374e-06
 Reference value :  5.25580e-06
 Reference value :  5.25944e-06
 Reference value :  5.27305e-06
 Reference value :  5.33954e-06
 Reference value :  5.50001e-06
 Reference value :  5.50010e-06
 Reference value :  5.50016e-06
 Reference value :  5.50050e-06
 Reference value :  5.50129e-06
 Reference value :  5.50218e-06
 Reference value :  5.50395e-06
 Reference value :  5.50473e-06
 Reference value :  5.50657e-06
 Reference value :  5.50734e-06
 Reference value :  5.50903e-06
 Reference value :  5.51119e-06
 Reference value :  5.51956e-06
 Reference value :  5.58502e-06
 Reference value :  5.75011e-06
 Reference value :  5.75020e-06
 Reference value :  5.75026e-06
 Reference value :  5.75044e-06
 Reference value :  5.75094e-06
 Reference value :  5.75185e-06
 Reference value :  5.75302e-06
 Reference value :  5.75439e-06
 Reference value :  5.75670e-06
 Reference value :  5.75842e-06
 Reference value :  5.76214e-06
 Reference value :  5.77522e-06
 Reference value :  5.84761e-06
 Reference value :  6.00001e-06
 Reference value :  6.00010e-06
 Reference value :  6.00012e-06
 Reference value :  6.00034e-06
 Reference value :  6.00128e-06
 Reference value :  6.00219e-06
 Reference value :  6.00329e-06
 Reference value :  6.00441e-06
 Reference value :  6.00556e-06
 Reference value :  6.00609e-06
 Reference value :  6.00843e-06
 Reference value :  6.01072e-06
 Reference value :  6.01286e-06
 Reference value :  6.01448e-06
 Reference value :  6.01653e-06
 Reference value :  6.01882e-06
 Reference value :  6.02202e-06
 Reference value :  6.02537e-06
 Reference value :  6.02885e-06
 Reference value :  6.03472e-06
 Reference value :  6.04880e-06
 Reference value :  6.10402e-06
 Reference value :  6.23611e-06
 Reference value :  6.25011e-06
 Reference value :  6.25020e-06
 Reference value :  6.25026e-06
 Reference value :  6.25068e-06
 Reference value :  6.25138e-06
 Reference value :  6.25235e-06
 Reference value :  6.25365e-06
 Reference value :  6.25497e-06
 Reference value :  6.25760e-06
 Reference value :  6.26508e-06
 Reference value :  6.30221e-06
 Reference value :  6.39234e-06
 Reference value :  6.47709e-06
 Reference value :  6.50003e-06
 Reference value :  6.50010e-06
 Reference value :  6.50016e-06
 Reference value :  6.50050e-06
 Reference value :  6.50129e-06
 Reference value :  6.50218e-06
 Reference value :  6.50333e-06
 Reference value :  6.50476e-06
 Reference value :  6.50661e-06
 Reference value :  6.50738e-06
 Reference value :  6.50904e-06
 Reference value :  6.51120e-06
 Reference value :  6.51940e-06
 Reference value :  6.58144e-06
 Reference value :  6.75011e-06
 Reference value :  6.75020e-06
 Reference value :  6.75026e-06
 Reference value :  6.75044e-06
 Reference value :  6.75094e-06
 Reference value :  6.75138e-06
 Reference value :  6.75235e-06
 Reference value :  6.75376e-06
 Reference value :  6.75504e-06
 Reference value :  6.75669e-06
 Reference value :  6.75842e-06
 Reference value :  6.76073e-06
 Reference value :  6.76213e-06
 Reference value :  6.77522e-06
 Reference value :  6.84827e-06
 Reference value :  7.00001e-06
 Reference value :  7.00010e-06
 Reference value :  7.00012e-06
 Reference value :  7.00034e-06
 Reference value :  7.00083e-06
 Reference value :  7.00128e-06
 Reference value :  7.00219e-06
 Reference value :  7.00330e-06
 Reference value :  7.00443e-06
 Reference value :  7.00557e-06
 Reference value :  7.00609e-06
 Reference value :  7.00754e-06
 Reference value :  7.00972e-06
 Reference value :  7.01070e-06
 Reference value :  7.01172e-06
 Reference value :  7.01367e-06
 Reference value :  7.01651e-06
 Reference value :  7.01879e-06
 Reference value :  7.02162e-06
 Reference value :  7.02572e-06
 Reference value :  7.03451e-06
 Reference value :  7.05567e-06
 Reference value :  7.11210e-06
 Reference value :  7.25010e-06
 Reference value :  7.25017e-06
 Reference value :  7.25022e-06
 Reference value :  7.25044e-06
 Reference value :  7.25094e-06
 Reference value :  7.25185e-06
 Reference value :  7.25302e-06
 Reference value :  7.25438e-06
 Reference value :  7.25569e-06
 Reference value :  7.25915e-06
 Reference value :  7.27244e-06
 Reference value :  7.34035e-06
 Reference value :  7.50001e-06
 Reference value :  7.50007e-06
 Reference value :  7.50012e-06
 Reference value :  7.50034e-06
 Reference value :  7.50128e-06
 Reference value :  7.50219e-06
 Reference value :  7.50323e-06
 Reference value :  7.50442e-06
 Reference value :  7.50616e-06
 Reference value :  7.50818e-06
 Reference value :  7.51036e-06
 Reference value :  7.52038e-06
 Reference value :  7.75010e-06
 Reference value :  7.75017e-06
 Reference value :  7.75022e-06
 Reference value :  7.75044e-06
 Reference value :  7.75138e-06
 Reference value :  7.75235e-06
 Reference value :  7.75376e-06
 Reference value :  7.75505e-06
 Reference value :  7.75670e-06
 Reference value :  7.76140e-06
 Reference value :  7.80477e-06
 Reference value :  8.00001e-06
 Reference value :  8.00010e-06
 Reference value :  8.00016e-06
 Reference value :  8.00050e-06
 Reference value :  8.00128e-06
 Reference value :  8.00219e-06
 Reference value :  8.00329e-06
 Reference value :  8.00440e-06
 Reference value :  8.00556e-06
 Reference value :  8.00672e-06
 Reference value :  8.00844e-06
 Reference value :  8.01027e-06
 Reference value :  8.01794e-06
 Reference value :  8.07926e-06
 Reference value :  8.25011e-06
 Reference value :  8.25020e-06
 Reference value :  8.25026e-06
 Reference value :  8.25070e-06
 Reference value :  8.25139e-06
 Reference value :  8.25237e-06
 Reference value :  8.25387e-06
 Reference value :  8.25659e-06
 Reference value :  8.26176e-06
 Reference value :  8.28060e-06
 Reference value :  8.49693e-06
 Reference value :  8.50003e-06
 Reference value :  8.50011e-06
 Reference value :  8.50022e-06
 Reference value :  8.50096e-06
 Reference value :  8.50213e-06
 Reference value :  8.50262e-06
 Reference value :  8.50382e-06
 Reference value :  8.50534e-06
 Reference value :  8.50672e-06
 Reference value :  8.51071e-06
 Reference value :  8.52429e-06
 Reference value :  8.52843e-06
 Reference value :  8.53146e-06
 Reference value :  8.53424e-06
 Reference value :  8.53863e-06
 Reference value :  8.54517e-06
 Reference value :  8.55699e-06
 Reference value :  8.58779e-06
 Reference value :  8.66652e-06
 Reference value :  8.75011e-06
 Reference value :  8.75020e-06
 Reference value :  8.75026e-06
 Reference value :  8.75069e-06
 Reference value :  8.75138e-06
 Reference value :  8.75236e-06
 Reference value :  8.75377e-06
 Reference value :  8.75504e-06
 Reference value :  8.75762e-06
 Reference value :  8.76547e-06
 Reference value :  8.80475e-06
No. of Data Rows : 1315
ngspice-44 done
