
Note: Compatibility modes selected: hs a


Circuit: ** sch_path: /home/samantha/cace/sar-adc-using-sky130-pdk/runs/run_2025-09-05_16-10-12/parameters/power/run_04/power_consumption.sch

option SCALE: Scale is set to 1e-06 for instance and model parameters
option SCALE: Scale is set to 1e-06 for instance and model parameters
option SCALE: Scale is set to 1e-06 for instance and model parameters
option SCALE: Scale is set to 1e-06 for instance and model parameters
Doing analysis at TEMP = 27.000000 and TNOM = 27.000000

Using KLU as Direct Linear Solver
 Reference value :  0.00000e+00
 Reference value :  2.00000e-12
 Reference value :  4.00000e-12
 Reference value :  1.60000e-11
 Reference value :  6.40000e-11
 Reference value :  1.00000e-10
 Reference value :  1.19200e-10
 Reference value :  1.96000e-10
 Reference value :  4.68998e-10
 Reference value :  9.84660e-10
 Reference value :  1.85616e-09
 Reference value :  2.29916e-09
 Reference value :  2.70674e-09
 Reference value :  3.15135e-09
 Reference value :  3.64538e-09
 Reference value :  4.17191e-09
 Reference value :  4.72203e-09
 Reference value :  5.42083e-09
 Reference value :  6.16398e-09
 Reference value :  7.01843e-09
 Reference value :  7.92831e-09
 Reference value :  8.75847e-09
 Reference value :  9.72594e-09
 Reference value :  1.07852e-08
 Reference value :  1.16605e-08
 Reference value :  1.25401e-08
 Reference value :  1.33574e-08
 Reference value :  1.42187e-08
 Reference value :  1.82106e-08
 Reference value :  2.09038e-08
 Reference value :  2.34135e-08
 Reference value :  2.50718e-08
 Reference value :  2.66414e-08
 Reference value :  2.79105e-08
 Reference value :  2.92122e-08
 Reference value :  3.13210e-08
 Reference value :  3.79778e-08
 Reference value :  4.42369e-08
 Reference value :  5.01331e-08
 Reference value :  5.96627e-08
 Reference value :  6.87842e-08
 Reference value :  8.69683e-08
 Reference value :  1.16138e-07
 Reference value :  1.43048e-07
 Reference value :  1.52740e-07
 Reference value :  1.66828e-07
 Reference value :  1.78514e-07
 Reference value :  1.89943e-07
 Reference value :  2.03144e-07
 Reference value :  2.15044e-07
 Reference value :  2.50100e-07
 Reference value :  2.50110e-07
 Reference value :  2.50130e-07
 Reference value :  2.50170e-07
 Reference value :  2.50200e-07
 Reference value :  2.50220e-07
 Reference value :  2.50247e-07
 Reference value :  2.50300e-07
 Reference value :  2.50407e-07
 Reference value :  2.50522e-07
 Reference value :  2.50742e-07
 Reference value :  2.50968e-07
 Reference value :  2.51421e-07
 Reference value :  2.51838e-07
 Reference value :  2.52276e-07
 Reference value :  2.52921e-07
 Reference value :  2.53567e-07
 Reference value :  2.54125e-07
 Reference value :  2.54716e-07
 Reference value :  2.55314e-07
 Reference value :  2.56094e-07
 Reference value :  2.58101e-07
 Reference value :  2.59730e-07
 Reference value :  2.62255e-07
 Reference value :  2.65426e-07
 Reference value :  2.81868e-07
 Reference value :  2.99055e-07
 Reference value :  3.29811e-07
 Reference value :  3.80813e-07
 Reference value :  4.71292e-07
 Reference value :  5.00000e-07
 Reference value :  5.00010e-07
 Reference value :  5.00030e-07
 Reference value :  5.00070e-07
 Reference value :  5.00100e-07
 Reference value :  5.00108e-07
 Reference value :  5.00124e-07
 Reference value :  5.00155e-07
 Reference value :  5.00218e-07
 Reference value :  5.00344e-07
 Reference value :  5.00531e-07
 Reference value :  5.00884e-07
 Reference value :  5.01582e-07
 Reference value :  5.02024e-07
 Reference value :  5.02497e-07
 Reference value :  5.03000e-07
 Reference value :  5.04122e-07
 Reference value :  5.05645e-07
 Reference value :  5.08266e-07
 Reference value :  5.09384e-07
 Reference value :  5.12015e-07
 Reference value :  5.13403e-07
 Reference value :  5.16846e-07
 Reference value :  5.22507e-07
 Reference value :  5.38820e-07
 Reference value :  5.57999e-07
 Reference value :  7.50100e-07
 Reference value :  7.50130e-07
 Reference value :  7.50200e-07
 Reference value :  7.50224e-07
 Reference value :  7.50320e-07
 Reference value :  7.50629e-07
 Reference value :  7.51771e-07
 Reference value :  7.52796e-07
 Reference value :  7.53997e-07
 Reference value :  7.55176e-07
 Reference value :  7.55864e-07
 Reference value :  7.57475e-07
 Reference value :  7.58462e-07
 Reference value :  7.61429e-07
 Reference value :  7.66545e-07
 Reference value :  7.71483e-07
 Reference value :  8.13955e-07
 Reference value :  9.07259e-07
 Reference value :  1.00001e-06
 Reference value :  1.00007e-06
 Reference value :  1.00011e-06
 Reference value :  1.00022e-06
 Reference value :  1.00088e-06
 Reference value :  1.00163e-06
 Reference value :  1.00259e-06
 Reference value :  1.00309e-06
 Reference value :  1.00421e-06
 Reference value :  1.00472e-06
 Reference value :  1.00522e-06
 Reference value :  1.00645e-06
 Reference value :  1.00817e-06
 Reference value :  1.01020e-06
 Reference value :  1.01210e-06
 Reference value :  1.01379e-06
 Reference value :  1.01552e-06
 Reference value :  1.01639e-06
 Reference value :  1.01829e-06
 Reference value :  1.01936e-06
 Reference value :  1.02728e-06
 Reference value :  1.10739e-06
 Reference value :  1.25010e-06
 Reference value :  1.25017e-06
 Reference value :  1.25026e-06
 Reference value :  1.25087e-06
 Reference value :  1.25177e-06
 Reference value :  1.25349e-06
 Reference value :  1.25456e-06
 Reference value :  1.25580e-06
 Reference value :  1.25799e-06
 Reference value :  1.26256e-06
 Reference value :  1.27333e-06
 Reference value :  1.37067e-06
 Reference value :  1.50000e-06
 Reference value :  1.50003e-06
 Reference value :  1.50010e-06
 Reference value :  1.50012e-06
 Reference value :  1.50022e-06
 Reference value :  1.50088e-06
 Reference value :  1.50159e-06
 Reference value :  1.50252e-06
 Reference value :  1.50301e-06
 Reference value :  1.50411e-06
 Reference value :  1.50564e-06
 Reference value :  1.50625e-06
 Reference value :  1.50795e-06
 Reference value :  1.50986e-06
 Reference value :  1.51229e-06
 Reference value :  1.52613e-06
 Reference value :  1.61381e-06
 Reference value :  1.75011e-06
 Reference value :  1.75017e-06
 Reference value :  1.75022e-06
 Reference value :  1.75045e-06
 Reference value :  1.75087e-06
 Reference value :  1.75177e-06
 Reference value :  1.75280e-06
 Reference value :  1.75350e-06
 Reference value :  1.75400e-06
 Reference value :  1.75518e-06
 Reference value :  1.75669e-06
 Reference value :  1.75862e-06
 Reference value :  1.76355e-06
 Reference value :  1.79449e-06
 Reference value :  1.99966e-06
 Reference value :  2.00007e-06
 Reference value :  2.00012e-06
 Reference value :  2.00034e-06
 Reference value :  2.00089e-06
 Reference value :  2.00163e-06
 Reference value :  2.00259e-06
 Reference value :  2.00309e-06
 Reference value :  2.00421e-06
 Reference value :  2.00523e-06
 Reference value :  2.00579e-06
 Reference value :  2.00718e-06
 Reference value :  2.00819e-06
 Reference value :  2.00926e-06
 Reference value :  2.01022e-06
 Reference value :  2.01120e-06
 Reference value :  2.01213e-06
 Reference value :  2.01382e-06
 Reference value :  2.01563e-06
 Reference value :  2.01652e-06
 Reference value :  2.01746e-06
 Reference value :  2.01856e-06
 Reference value :  2.02157e-06
 Reference value :  2.02851e-06
 Reference value :  2.04860e-06
 Reference value :  2.05905e-06
 Reference value :  2.06991e-06
 Reference value :  2.07697e-06
 Reference value :  2.08270e-06
 Reference value :  2.08677e-06
 Reference value :  2.10046e-06
 Reference value :  2.12263e-06
 Reference value :  2.14781e-06
 Reference value :  2.18673e-06
 Reference value :  2.25010e-06
 Reference value :  2.25013e-06
 Reference value :  2.25020e-06
 Reference value :  2.25026e-06
 Reference value :  2.25045e-06
 Reference value :  2.25087e-06
 Reference value :  2.25177e-06
 Reference value :  2.25222e-06
 Reference value :  2.25352e-06
 Reference value :  2.25402e-06
 Reference value :  2.25516e-06
 Reference value :  2.25585e-06
 Reference value :  2.25805e-06
 Reference value :  2.26272e-06
 Reference value :  2.27394e-06
 Reference value :  2.31627e-06
 Reference value :  2.37101e-06
 Reference value :  2.46398e-06
 Reference value :  2.50001e-06
 Reference value :  2.50003e-06
 Reference value :  2.50007e-06
 Reference value :  2.50010e-06
 Reference value :  2.50012e-06
 Reference value :  2.50016e-06
 Reference value :  2.50034e-06
 Reference value :  2.50088e-06
 Reference value :  2.50164e-06
 Reference value :  2.50259e-06
 Reference value :  2.50308e-06
 Reference value :  2.50421e-06
 Reference value :  2.50493e-06
 Reference value :  2.50576e-06
 Reference value :  2.50642e-06
 Reference value :  2.50717e-06
 Reference value :  2.50804e-06
 Reference value :  2.50899e-06
 Reference value :  2.51109e-06
 Reference value :  2.51479e-06
 Reference value :  2.52420e-06
 Reference value :  2.55146e-06
 Reference value :  2.65346e-06
 Reference value :  2.75011e-06
 Reference value :  2.75017e-06
 Reference value :  2.75021e-06
 Reference value :  2.75032e-06
 Reference value :  2.75063e-06
 Reference value :  2.75136e-06
 Reference value :  2.75177e-06
 Reference value :  2.75280e-06
 Reference value :  2.75350e-06
 Reference value :  2.75400e-06
 Reference value :  2.75518e-06
 Reference value :  2.75669e-06
 Reference value :  2.76010e-06
 Reference value :  2.76681e-06
 Reference value :  2.78946e-06
 Reference value :  2.87308e-06
 Reference value :  3.00000e-06
 Reference value :  3.00003e-06
 Reference value :  3.00010e-06
 Reference value :  3.00012e-06
 Reference value :  3.00016e-06
 Reference value :  3.00034e-06
 Reference value :  3.00089e-06
 Reference value :  3.00121e-06
 Reference value :  3.00164e-06
 Reference value :  3.00259e-06
 Reference value :  3.00308e-06
 Reference value :  3.00420e-06
 Reference value :  3.00528e-06
 Reference value :  3.00675e-06
 Reference value :  3.00920e-06
 Reference value :  3.01121e-06
 Reference value :  3.01276e-06
 Reference value :  3.01406e-06
 Reference value :  3.01655e-06
 Reference value :  3.01921e-06
 Reference value :  3.02294e-06
 Reference value :  3.02523e-06
 Reference value :  3.03723e-06
 Reference value :  3.05040e-06
 Reference value :  3.09835e-06
 Reference value :  3.15009e-06
 Reference value :  3.22471e-06
 Reference value :  3.25011e-06
 Reference value :  3.25017e-06
 Reference value :  3.25022e-06
 Reference value :  3.25032e-06
 Reference value :  3.25063e-06
 Reference value :  3.25136e-06
 Reference value :  3.25177e-06
 Reference value :  3.25280e-06
 Reference value :  3.25352e-06
 Reference value :  3.25402e-06
 Reference value :  3.25515e-06
 Reference value :  3.25585e-06
 Reference value :  3.25804e-06
 Reference value :  3.26270e-06
 Reference value :  3.27388e-06
 Reference value :  3.31594e-06
 Reference value :  3.47885e-06
 Reference value :  3.50001e-06
 Reference value :  3.50007e-06
 Reference value :  3.50011e-06
 Reference value :  3.50016e-06
 Reference value :  3.50034e-06
 Reference value :  3.50088e-06
 Reference value :  3.50164e-06
 Reference value :  3.50259e-06
 Reference value :  3.50308e-06
 Reference value :  3.50365e-06
 Reference value :  3.50494e-06
 Reference value :  3.50578e-06
 Reference value :  3.50645e-06
 Reference value :  3.50807e-06
 Reference value :  3.50902e-06
 Reference value :  3.51113e-06
 Reference value :  3.51484e-06
 Reference value :  3.52422e-06
 Reference value :  3.55113e-06
 Reference value :  3.65162e-06
 Reference value :  3.75011e-06
 Reference value :  3.75017e-06
 Reference value :  3.75021e-06
 Reference value :  3.75032e-06
 Reference value :  3.75063e-06
 Reference value :  3.75087e-06
 Reference value :  3.75177e-06
 Reference value :  3.75280e-06
 Reference value :  3.75350e-06
 Reference value :  3.75400e-06
 Reference value :  3.75457e-06
 Reference value :  3.75593e-06
 Reference value :  3.75806e-06
 Reference value :  3.76282e-06
 Reference value :  3.78953e-06
 Reference value :  3.87151e-06
 Reference value :  4.00000e-06
 Reference value :  4.00003e-06
 Reference value :  4.00007e-06
 Reference value :  4.00010e-06
 Reference value :  4.00011e-06
 Reference value :  4.00012e-06
 Reference value :  4.00022e-06
 Reference value :  4.00053e-06
 Reference value :  4.00089e-06
 Reference value :  4.00164e-06
 Reference value :  4.00211e-06
 Reference value :  4.00308e-06
 Reference value :  4.00420e-06
 Reference value :  4.00476e-06
 Reference value :  4.00528e-06
 Reference value :  4.00675e-06
 Reference value :  4.00920e-06
 Reference value :  4.01119e-06
 Reference value :  4.01269e-06
 Reference value :  4.01399e-06
 Reference value :  4.01650e-06
 Reference value :  4.01781e-06
 Reference value :  4.01909e-06
 Reference value :  4.02047e-06
 Reference value :  4.02261e-06
 Reference value :  4.02927e-06
 Reference value :  4.03540e-06
 Reference value :  4.04259e-06
 Reference value :  4.06159e-06
 Reference value :  4.06850e-06
 Reference value :  4.07510e-06
 Reference value :  4.08206e-06
 Reference value :  4.09663e-06
 Reference value :  4.11342e-06
 Reference value :  4.14675e-06
 Reference value :  4.20117e-06
 Reference value :  4.25010e-06
 Reference value :  4.25013e-06
 Reference value :  4.25017e-06
 Reference value :  4.25021e-06
 Reference value :  4.25026e-06
 Reference value :  4.25042e-06
 Reference value :  4.25061e-06
 Reference value :  4.25082e-06
 Reference value :  4.25151e-06
 Reference value :  4.25195e-06
 Reference value :  4.25240e-06
 Reference value :  4.25307e-06
 Reference value :  4.25371e-06
 Reference value :  4.25423e-06
 Reference value :  4.25483e-06
 Reference value :  4.25537e-06
 Reference value :  4.25612e-06
 Reference value :  4.25692e-06
 Reference value :  4.26060e-06
 Reference value :  4.26791e-06
 Reference value :  4.27498e-06
 Reference value :  4.27943e-06
 Reference value :  4.28429e-06
 Reference value :  4.29734e-06
 Reference value :  4.31912e-06
 Reference value :  4.35208e-06
 Reference value :  4.45060e-06
 Reference value :  4.50001e-06
 Reference value :  4.50007e-06
 Reference value :  4.50010e-06
 Reference value :  4.50016e-06
 Reference value :  4.50034e-06
 Reference value :  4.50096e-06
 Reference value :  4.50185e-06
 Reference value :  4.50294e-06
 Reference value :  4.50349e-06
 Reference value :  4.50473e-06
 Reference value :  4.50548e-06
 Reference value :  4.50607e-06
 Reference value :  4.50680e-06
 Reference value :  4.50860e-06
 Reference value :  4.51061e-06
 Reference value :  4.51342e-06
 Reference value :  4.51989e-06
 Reference value :  4.53739e-06
 Reference value :  4.55713e-06
 Reference value :  4.67396e-06
 Reference value :  4.75011e-06
 Reference value :  4.75013e-06
 Reference value :  4.75020e-06
 Reference value :  4.75026e-06
 Reference value :  4.75042e-06
 Reference value :  4.75082e-06
 Reference value :  4.75151e-06
 Reference value :  4.75240e-06
 Reference value :  4.75373e-06
 Reference value :  4.75425e-06
 Reference value :  4.75543e-06
 Reference value :  4.75616e-06
 Reference value :  4.75844e-06
 Reference value :  4.76798e-06
 Reference value :  4.79318e-06
 Reference value :  4.99554e-06
 Reference value :  5.00001e-06
 Reference value :  5.00007e-06
 Reference value :  5.00011e-06
 Reference value :  5.00016e-06
 Reference value :  5.00034e-06
 Reference value :  5.00096e-06
 Reference value :  5.00185e-06
 Reference value :  5.00294e-06
 Reference value :  5.00348e-06
 Reference value :  5.00468e-06
 Reference value :  5.00518e-06
 Reference value :  5.00650e-06
 Reference value :  5.00878e-06
 Reference value :  5.01213e-06
 Reference value :  5.01373e-06
 Reference value :  5.01491e-06
 Reference value :  5.01730e-06
 Reference value :  5.01977e-06
 Reference value :  5.02158e-06
 Reference value :  5.02688e-06
 Reference value :  5.03934e-06
 Reference value :  5.04470e-06
 Reference value :  5.04837e-06
 Reference value :  5.05250e-06
 Reference value :  5.06438e-06
 Reference value :  5.07867e-06
 Reference value :  5.09663e-06
 Reference value :  5.13856e-06
 Reference value :  5.25010e-06
 Reference value :  5.25011e-06
 Reference value :  5.25017e-06
 Reference value :  5.25021e-06
 Reference value :  5.25026e-06
 Reference value :  5.25042e-06
 Reference value :  5.25079e-06
 Reference value :  5.25152e-06
 Reference value :  5.25242e-06
 Reference value :  5.25373e-06
 Reference value :  5.25427e-06
 Reference value :  5.25488e-06
 Reference value :  5.25543e-06
 Reference value :  5.25623e-06
 Reference value :  5.25867e-06
 Reference value :  5.26389e-06
 Reference value :  5.27858e-06
 Reference value :  5.33051e-06
 Reference value :  5.50000e-06
 Reference value :  5.50003e-06
 Reference value :  5.50010e-06
 Reference value :  5.50012e-06
 Reference value :  5.50016e-06
 Reference value :  5.50034e-06
 Reference value :  5.50096e-06
 Reference value :  5.50138e-06
 Reference value :  5.50185e-06
 Reference value :  5.50241e-06
 Reference value :  5.50294e-06
 Reference value :  5.50347e-06
 Reference value :  5.50407e-06
 Reference value :  5.50469e-06
 Reference value :  5.50545e-06
 Reference value :  5.50603e-06
 Reference value :  5.50678e-06
 Reference value :  5.50772e-06
 Reference value :  5.50860e-06
 Reference value :  5.50966e-06
 Reference value :  5.51203e-06
 Reference value :  5.51614e-06
 Reference value :  5.52647e-06
 Reference value :  5.55820e-06
 Reference value :  5.59909e-06
 Reference value :  5.75010e-06
 Reference value :  5.75013e-06
 Reference value :  5.75020e-06
 Reference value :  5.75022e-06
 Reference value :  5.75032e-06
 Reference value :  5.75061e-06
 Reference value :  5.75111e-06
 Reference value :  5.75151e-06
 Reference value :  5.75240e-06
 Reference value :  5.75306e-06
 Reference value :  5.75373e-06
 Reference value :  5.75425e-06
 Reference value :  5.75485e-06
 Reference value :  5.75543e-06
 Reference value :  5.75616e-06
 Reference value :  5.75770e-06
 Reference value :  5.75867e-06
 Reference value :  5.75967e-06
 Reference value :  5.76337e-06
 Reference value :  5.77127e-06
 Reference value :  5.78938e-06
 Reference value :  5.83238e-06
 Reference value :  5.93677e-06
 Reference value :  6.00001e-06
 Reference value :  6.00007e-06
 Reference value :  6.00011e-06
 Reference value :  6.00016e-06
 Reference value :  6.00022e-06
 Reference value :  6.00057e-06
 Reference value :  6.00138e-06
 Reference value :  6.00185e-06
 Reference value :  6.00241e-06
 Reference value :  6.00294e-06
 Reference value :  6.00349e-06
 Reference value :  6.00408e-06
 Reference value :  6.00530e-06
 Reference value :  6.00588e-06
 Reference value :  6.00739e-06
 Reference value :  6.00849e-06
 Reference value :  6.00954e-06
 Reference value :  6.01062e-06
 Reference value :  6.01172e-06
 Reference value :  6.01285e-06
 Reference value :  6.01370e-06
 Reference value :  6.01452e-06
 Reference value :  6.01549e-06
 Reference value :  6.01650e-06
 Reference value :  6.01743e-06
 Reference value :  6.01844e-06
 Reference value :  6.01953e-06
 Reference value :  6.02333e-06
 Reference value :  6.03328e-06
 Reference value :  6.04742e-06
 Reference value :  6.07266e-06
 Reference value :  6.13861e-06
 Reference value :  6.25010e-06
 Reference value :  6.25013e-06
 Reference value :  6.25020e-06
 Reference value :  6.25022e-06
 Reference value :  6.25032e-06
 Reference value :  6.25061e-06
 Reference value :  6.25079e-06
 Reference value :  6.25110e-06
 Reference value :  6.25152e-06
 Reference value :  6.25196e-06
 Reference value :  6.25242e-06
 Reference value :  6.25309e-06
 Reference value :  6.25376e-06
 Reference value :  6.25429e-06
 Reference value :  6.25489e-06
 Reference value :  6.25545e-06
 Reference value :  6.25621e-06
 Reference value :  6.25703e-06
 Reference value :  6.25854e-06
 Reference value :  6.26369e-06
 Reference value :  6.27806e-06
 Reference value :  6.32985e-06
 Reference value :  6.39753e-06
 Reference value :  6.50001e-06
 Reference value :  6.50007e-06
 Reference value :  6.50011e-06
 Reference value :  6.50016e-06
 Reference value :  6.50034e-06
 Reference value :  6.50057e-06
 Reference value :  6.50096e-06
 Reference value :  6.50185e-06
 Reference value :  6.50241e-06
 Reference value :  6.50294e-06
 Reference value :  6.50347e-06
 Reference value :  6.50407e-06
 Reference value :  6.50545e-06
 Reference value :  6.50603e-06
 Reference value :  6.50678e-06
 Reference value :  6.50772e-06
 Reference value :  6.50859e-06
 Reference value :  6.50965e-06
 Reference value :  6.51201e-06
 Reference value :  6.51609e-06
 Reference value :  6.52632e-06
 Reference value :  6.55755e-06
 Reference value :  6.67575e-06
 Reference value :  6.75011e-06
 Reference value :  6.75017e-06
 Reference value :  6.75021e-06
 Reference value :  6.75026e-06
 Reference value :  6.75042e-06
 Reference value :  6.75061e-06
 Reference value :  6.75111e-06
 Reference value :  6.75151e-06
 Reference value :  6.75195e-06
 Reference value :  6.75240e-06
 Reference value :  6.75374e-06
 Reference value :  6.75426e-06
 Reference value :  6.75485e-06
 Reference value :  6.75544e-06
 Reference value :  6.75616e-06
 Reference value :  6.75692e-06
 Reference value :  6.75771e-06
 Reference value :  6.75879e-06
 Reference value :  6.76180e-06
 Reference value :  6.76706e-06
 Reference value :  6.77958e-06
 Reference value :  6.81085e-06
 Reference value :  6.88881e-06
 Reference value :  7.00000e-06
 Reference value :  7.00001e-06
 Reference value :  7.00007e-06
 Reference value :  7.00011e-06
 Reference value :  7.00016e-06
 Reference value :  7.00022e-06
 Reference value :  7.00057e-06
 Reference value :  7.00096e-06
 Reference value :  7.00185e-06
 Reference value :  7.00294e-06
 Reference value :  7.00349e-06
 Reference value :  7.00408e-06
 Reference value :  7.00474e-06
 Reference value :  7.00530e-06
 Reference value :  7.00662e-06
 Reference value :  7.00739e-06
 Reference value :  7.00849e-06
 Reference value :  7.01062e-06
 Reference value :  7.01172e-06
 Reference value :  7.01285e-06
 Reference value :  7.01371e-06
 Reference value :  7.01561e-06
 Reference value :  7.01758e-06
 Reference value :  7.01864e-06
 Reference value :  7.01979e-06
 Reference value :  7.02391e-06
 Reference value :  7.03319e-06
 Reference value :  7.05871e-06
 Reference value :  7.13892e-06
 Reference value :  7.25010e-06
 Reference value :  7.25013e-06
 Reference value :  7.25020e-06
 Reference value :  7.25022e-06
 Reference value :  7.25032e-06
 Reference value :  7.25061e-06
 Reference value :  7.25110e-06
 Reference value :  7.25152e-06
 Reference value :  7.25242e-06
 Reference value :  7.25309e-06
 Reference value :  7.25376e-06
 Reference value :  7.25429e-06
 Reference value :  7.25489e-06
 Reference value :  7.25545e-06
 Reference value :  7.25621e-06
 Reference value :  7.25854e-06
 Reference value :  7.26369e-06
 Reference value :  7.27804e-06
 Reference value :  7.32962e-06
 Reference value :  7.50000e-06
 Reference value :  7.50003e-06
 Reference value :  7.50010e-06
 Reference value :  7.50012e-06
 Reference value :  7.50022e-06
 Reference value :  7.50057e-06
 Reference value :  7.50138e-06
 Reference value :  7.50241e-06
 Reference value :  7.50347e-06
 Reference value :  7.50468e-06
 Reference value :  7.50545e-06
 Reference value :  7.50603e-06
 Reference value :  7.50772e-06
 Reference value :  7.50859e-06
 Reference value :  7.51062e-06
 Reference value :  7.51201e-06
 Reference value :  7.51608e-06
 Reference value :  7.52627e-06
 Reference value :  7.59707e-06
 Reference value :  7.75010e-06
 Reference value :  7.75013e-06
 Reference value :  7.75020e-06
 Reference value :  7.75022e-06
 Reference value :  7.75032e-06
 Reference value :  7.75061e-06
 Reference value :  7.75111e-06
 Reference value :  7.75151e-06
 Reference value :  7.75240e-06
 Reference value :  7.75374e-06
 Reference value :  7.75426e-06
 Reference value :  7.75544e-06
 Reference value :  7.75616e-06
 Reference value :  7.75771e-06
 Reference value :  7.75981e-06
 Reference value :  7.76368e-06
 Reference value :  7.77218e-06
 Reference value :  7.79219e-06
 Reference value :  7.84113e-06
 Reference value :  8.00000e-06
 Reference value :  8.00003e-06
 Reference value :  8.00010e-06
 Reference value :  8.00012e-06
 Reference value :  8.00022e-06
 Reference value :  8.00057e-06
 Reference value :  8.00138e-06
 Reference value :  8.00241e-06
 Reference value :  8.00350e-06
 Reference value :  8.00475e-06
 Reference value :  8.00530e-06
 Reference value :  8.00663e-06
 Reference value :  8.00739e-06
 Reference value :  8.00820e-06
 Reference value :  8.00974e-06
 Reference value :  8.01159e-06
 Reference value :  8.01448e-06
 Reference value :  8.01860e-06
 Reference value :  8.02383e-06
 Reference value :  8.03075e-06
 Reference value :  8.03420e-06
 Reference value :  8.04926e-06
 Reference value :  8.06596e-06
 Reference value :  8.15646e-06
 Reference value :  8.25010e-06
 Reference value :  8.25013e-06
 Reference value :  8.25020e-06
 Reference value :  8.25022e-06
 Reference value :  8.25032e-06
 Reference value :  8.25063e-06
 Reference value :  8.25122e-06
 Reference value :  8.25160e-06
 Reference value :  8.25251e-06
 Reference value :  8.25395e-06
 Reference value :  8.25580e-06
 Reference value :  8.25845e-06
 Reference value :  8.26321e-06
 Reference value :  8.27465e-06
 Reference value :  8.38144e-06
No. of Data Rows : 1284
ngspice-44 done
