
Note: Compatibility modes selected: hs a


Circuit: ** sch_path: /home/ece/cace/sar-adc-using-sky130-pdk/runs/run_2025-09-12_21-30-45/parameters/dnl/run_2/sar_output_dnl.sch

option SCALE: Scale is set to 1e-06 for instance and model parameters
option SCALE: Scale is set to 1e-06 for instance and model parameters
option SCALE: Scale is set to 1e-06 for instance and model parameters
option SCALE: Scale is set to 1e-06 for instance and model parameters
Doing analysis at TEMP = 27.000000 and TNOM = 27.000000

Using KLU as Direct Linear Solver
Operating point simulation skipped by 'uic',
  now using transient initial conditions.
 Reference value :  1.00000e-12
 Reference value :  1.42000e-12
 Reference value :  1.38951e-11
 Reference value :  1.05568e-10
 Reference value :  2.72618e-10
 Reference value :  6.84821e-10
 Reference value :  1.85266e-09
 Reference value :  3.19659e-09
 Reference value :  5.07239e-09
 Reference value :  6.09748e-09
 Reference value :  6.75488e-09
 Reference value :  8.29644e-09
 Reference value :  1.02214e-08
 Reference value :  1.36285e-08
 Reference value :  2.65570e-08
 Reference value :  3.12914e-08
 Reference value :  3.90408e-08
 Reference value :  5.45501e-08
 Reference value :  1.29635e-07
 Reference value :  2.50110e-07
 Reference value :  2.50200e-07
 Reference value :  2.50254e-07
 Reference value :  2.50528e-07
 Reference value :  2.51271e-07
 Reference value :  2.52085e-07
 Reference value :  2.53685e-07
 Reference value :  2.55433e-07
 Reference value :  2.58683e-07
 Reference value :  2.79420e-07
 Reference value :  4.77288e-07
 Reference value :  5.00030e-07
 Reference value :  5.00108e-07
 Reference value :  5.00220e-07
 Reference value :  5.00827e-07
 Reference value :  5.01532e-07
 Reference value :  5.02818e-07
 Reference value :  5.04630e-07
 Reference value :  5.06443e-07
 Reference value :  5.08785e-07
 Reference value :  5.11229e-07
 Reference value :  5.13778e-07
 Reference value :  5.17376e-07
 Reference value :  5.49766e-07
 Reference value :  7.50100e-07
 Reference value :  7.50130e-07
 Reference value :  7.50208e-07
 Reference value :  7.50448e-07
 Reference value :  7.50986e-07
 Reference value :  7.51860e-07
 Reference value :  7.52990e-07
 Reference value :  7.53972e-07
 Reference value :  7.55028e-07
 Reference value :  7.56545e-07
 Reference value :  7.59544e-07
 Reference value :  7.74106e-07
 Reference value :  9.86046e-07
 Reference value :  1.00007e-06
 Reference value :  1.00016e-06
 Reference value :  1.00052e-06
 Reference value :  1.00119e-06
 Reference value :  1.00201e-06
 Reference value :  1.00290e-06
 Reference value :  1.00389e-06
 Reference value :  1.00484e-06
 Reference value :  1.00663e-06
 Reference value :  1.00849e-06
 Reference value :  1.01018e-06
 Reference value :  1.01192e-06
 Reference value :  1.01353e-06
 Reference value :  1.01624e-06
 Reference value :  1.01880e-06
 Reference value :  1.03740e-06
 Reference value :  1.14243e-06
 Reference value :  1.25010e-06
 Reference value :  1.25017e-06
 Reference value :  1.25022e-06
 Reference value :  1.25045e-06
 Reference value :  1.25098e-06
 Reference value :  1.25186e-06
 Reference value :  1.25300e-06
 Reference value :  1.25397e-06
 Reference value :  1.25528e-06
 Reference value :  1.25895e-06
 Reference value :  1.27274e-06
 Reference value :  1.37557e-06
 Reference value :  1.50001e-06
 Reference value :  1.50010e-06
 Reference value :  1.50016e-06
 Reference value :  1.50034e-06
 Reference value :  1.50083e-06
 Reference value :  1.50154e-06
 Reference value :  1.50235e-06
 Reference value :  1.50282e-06
 Reference value :  1.50388e-06
 Reference value :  1.50536e-06
 Reference value :  1.50598e-06
 Reference value :  1.50749e-06
 Reference value :  1.50925e-06
 Reference value :  1.51030e-06
 Reference value :  1.51688e-06
 Reference value :  1.54935e-06
 Reference value :  1.75010e-06
 Reference value :  1.75013e-06
 Reference value :  1.75020e-06
 Reference value :  1.75026e-06
 Reference value :  1.75045e-06
 Reference value :  1.75098e-06
 Reference value :  1.75140e-06
 Reference value :  1.75230e-06
 Reference value :  1.75299e-06
 Reference value :  1.75345e-06
 Reference value :  1.75448e-06
 Reference value :  1.75580e-06
 Reference value :  1.75837e-06
 Reference value :  1.76369e-06
 Reference value :  1.79031e-06
 Reference value :  2.00000e-06
 Reference value :  2.00007e-06
 Reference value :  2.00012e-06
 Reference value :  2.00034e-06
 Reference value :  2.00119e-06
 Reference value :  2.00201e-06
 Reference value :  2.00290e-06
 Reference value :  2.00390e-06
 Reference value :  2.00484e-06
 Reference value :  2.00664e-06
 Reference value :  2.00758e-06
 Reference value :  2.00933e-06
 Reference value :  2.01017e-06
 Reference value :  2.01191e-06
 Reference value :  2.01353e-06
 Reference value :  2.01528e-06
 Reference value :  2.01722e-06
 Reference value :  2.02045e-06
 Reference value :  2.05279e-06
 Reference value :  2.18132e-06
 Reference value :  2.25013e-06
 Reference value :  2.25021e-06
 Reference value :  2.25032e-06
 Reference value :  2.25069e-06
 Reference value :  2.25140e-06
 Reference value :  2.25230e-06
 Reference value :  2.25345e-06
 Reference value :  2.25462e-06
 Reference value :  2.25601e-06
 Reference value :  2.26174e-06
 Reference value :  2.28742e-06
 Reference value :  2.50000e-06
 Reference value :  2.50007e-06
 Reference value :  2.50012e-06
 Reference value :  2.50034e-06
 Reference value :  2.50083e-06
 Reference value :  2.50154e-06
 Reference value :  2.50282e-06
 Reference value :  2.50388e-06
 Reference value :  2.50536e-06
 Reference value :  2.50664e-06
 Reference value :  2.50839e-06
 Reference value :  2.51029e-06
 Reference value :  2.52243e-06
 Reference value :  2.64749e-06
 Reference value :  2.75013e-06
 Reference value :  2.75021e-06
 Reference value :  2.75045e-06
 Reference value :  2.75140e-06
 Reference value :  2.75229e-06
 Reference value :  2.75344e-06
 Reference value :  2.75448e-06
 Reference value :  2.75579e-06
 Reference value :  2.75751e-06
 Reference value :  2.75964e-06
 Reference value :  2.77493e-06
 Reference value :  2.88014e-06
 Reference value :  3.00003e-06
 Reference value :  3.00011e-06
 Reference value :  3.00022e-06
 Reference value :  3.00083e-06
 Reference value :  3.00158e-06
 Reference value :  3.00242e-06
 Reference value :  3.00342e-06
 Reference value :  3.00440e-06
 Reference value :  3.00534e-06
 Reference value :  3.00758e-06
 Reference value :  3.00928e-06
 Reference value :  3.01016e-06
 Reference value :  3.01191e-06
 Reference value :  3.01357e-06
 Reference value :  3.01535e-06
 Reference value :  3.01737e-06
 Reference value :  3.02427e-06
 Reference value :  3.03914e-06
 Reference value :  3.07170e-06
 Reference value :  3.08537e-06
 Reference value :  3.09405e-06
 Reference value :  3.11341e-06
 Reference value :  3.12756e-06
 Reference value :  3.14093e-06
 Reference value :  3.17228e-06
 Reference value :  3.22838e-06
 Reference value :  3.25011e-06
 Reference value :  3.25017e-06
 Reference value :  3.25021e-06
 Reference value :  3.25032e-06
 Reference value :  3.25098e-06
 Reference value :  3.25186e-06
 Reference value :  3.25299e-06
 Reference value :  3.25399e-06
 Reference value :  3.25524e-06
 Reference value :  3.25889e-06
 Reference value :  3.31558e-06
 Reference value :  3.50000e-06
 Reference value :  3.50007e-06
 Reference value :  3.50012e-06
 Reference value :  3.50052e-06
 Reference value :  3.50158e-06
 Reference value :  3.50290e-06
 Reference value :  3.50474e-06
 Reference value :  3.50616e-06
 Reference value :  3.50771e-06
 Reference value :  3.51086e-06
 Reference value :  3.54813e-06
 Reference value :  3.75011e-06
 Reference value :  3.75022e-06
 Reference value :  3.75069e-06
 Reference value :  3.75140e-06
 Reference value :  3.75299e-06
 Reference value :  3.75397e-06
 Reference value :  3.75579e-06
 Reference value :  3.76360e-06
 Reference value :  3.95711e-06
 Reference value :  4.00007e-06
 Reference value :  4.00016e-06
 Reference value :  4.00052e-06
 Reference value :  4.00119e-06
 Reference value :  4.00201e-06
 Reference value :  4.00289e-06
 Reference value :  4.00396e-06
 Reference value :  4.00500e-06
 Reference value :  4.00632e-06
 Reference value :  4.00847e-06
 Reference value :  4.01120e-06
 Reference value :  4.01223e-06
 Reference value :  4.01428e-06
 Reference value :  4.01524e-06
 Reference value :  4.01738e-06
 Reference value :  4.02395e-06
 Reference value :  4.03625e-06
 Reference value :  4.05106e-06
 Reference value :  4.06533e-06
 Reference value :  4.07842e-06
 Reference value :  4.11325e-06
 Reference value :  4.22039e-06
 Reference value :  4.25013e-06
 Reference value :  4.25021e-06
 Reference value :  4.25045e-06
 Reference value :  4.25140e-06
 Reference value :  4.25299e-06
 Reference value :  4.25455e-06
 Reference value :  4.25732e-06
 Reference value :  4.27188e-06
 Reference value :  4.50000e-06
 Reference value :  4.50010e-06
 Reference value :  4.50034e-06
 Reference value :  4.50154e-06
 Reference value :  4.50282e-06
 Reference value :  4.50464e-06
 Reference value :  4.50598e-06
 Reference value :  4.50749e-06
 Reference value :  4.51028e-06
 Reference value :  4.51673e-06
 Reference value :  4.58033e-06
 Reference value :  4.75013e-06
 Reference value :  4.75022e-06
 Reference value :  4.75045e-06
 Reference value :  4.75140e-06
 Reference value :  4.75299e-06
 Reference value :  4.75344e-06
 Reference value :  4.75448e-06
 Reference value :  4.75579e-06
 Reference value :  4.75836e-06
 Reference value :  4.76365e-06
 Reference value :  4.87983e-06
 Reference value :  5.00003e-06
 Reference value :  5.00012e-06
 Reference value :  5.00034e-06
 Reference value :  5.00119e-06
 Reference value :  5.00201e-06
 Reference value :  5.00290e-06
 Reference value :  5.00390e-06
 Reference value :  5.00484e-06
 Reference value :  5.00664e-06
 Reference value :  5.00841e-06
 Reference value :  5.01015e-06
 Reference value :  5.01190e-06
 Reference value :  5.01354e-06
 Reference value :  5.01629e-06
 Reference value :  5.02075e-06
 Reference value :  5.03661e-06
 Reference value :  5.04944e-06
 Reference value :  5.05997e-06
 Reference value :  5.08510e-06
 Reference value :  5.25010e-06
 Reference value :  5.25021e-06
 Reference value :  5.25069e-06
 Reference value :  5.25186e-06
 Reference value :  5.25345e-06
 Reference value :  5.25598e-06
 Reference value :  5.28670e-06
 Reference value :  5.50003e-06
 Reference value :  5.50016e-06
 Reference value :  5.50083e-06
 Reference value :  5.50158e-06
 Reference value :  5.50290e-06
 Reference value :  5.50399e-06
 Reference value :  5.50552e-06
 Reference value :  5.50616e-06
 Reference value :  5.50771e-06
 Reference value :  5.50956e-06
 Reference value :  5.52051e-06
 Reference value :  5.58255e-06
 Reference value :  5.75011e-06
 Reference value :  5.75020e-06
 Reference value :  5.75032e-06
 Reference value :  5.75098e-06
 Reference value :  5.75186e-06
 Reference value :  5.75299e-06
 Reference value :  5.75344e-06
 Reference value :  5.75448e-06
 Reference value :  5.75579e-06
 Reference value :  5.76026e-06
 Reference value :  5.78224e-06
 Reference value :  5.95643e-06
 Reference value :  6.00003e-06
 Reference value :  6.00011e-06
 Reference value :  6.00022e-06
 Reference value :  6.00083e-06
 Reference value :  6.00158e-06
 Reference value :  6.00242e-06
 Reference value :  6.00341e-06
 Reference value :  6.00500e-06
 Reference value :  6.00709e-06
 Reference value :  6.01120e-06
 Reference value :  6.01322e-06
 Reference value :  6.01524e-06
 Reference value :  6.01911e-06
 Reference value :  6.02392e-06
 Reference value :  6.03492e-06
 Reference value :  6.04348e-06
 Reference value :  6.06406e-06
 Reference value :  6.11255e-06
 Reference value :  6.25010e-06
 Reference value :  6.25017e-06
 Reference value :  6.25022e-06
 Reference value :  6.25045e-06
 Reference value :  6.25140e-06
 Reference value :  6.25299e-06
 Reference value :  6.25394e-06
 Reference value :  6.25595e-06
 Reference value :  6.26494e-06
 Reference value :  6.36888e-06
 Reference value :  6.50003e-06
 Reference value :  6.50011e-06
 Reference value :  6.50022e-06
 Reference value :  6.50083e-06
 Reference value :  6.50154e-06
 Reference value :  6.50235e-06
 Reference value :  6.50333e-06
 Reference value :  6.50536e-06
 Reference value :  6.50598e-06
 Reference value :  6.50749e-06
 Reference value :  6.51028e-06
 Reference value :  6.52219e-06
 Reference value :  6.64334e-06
 Reference value :  6.75017e-06
 Reference value :  6.75026e-06
 Reference value :  6.75069e-06
 Reference value :  6.75139e-06
 Reference value :  6.75299e-06
 Reference value :  6.75397e-06
 Reference value :  6.75502e-06
 Reference value :  6.75661e-06
 Reference value :  6.75963e-06
 Reference value :  6.77483e-06
 Reference value :  6.99869e-06
 Reference value :  7.00003e-06
 Reference value :  7.00012e-06
 Reference value :  7.00034e-06
 Reference value :  7.00119e-06
 Reference value :  7.00242e-06
 Reference value :  7.00390e-06
 Reference value :  7.00593e-06
 Reference value :  7.00850e-06
 Reference value :  7.01016e-06
 Reference value :  7.01179e-06
 Reference value :  7.01526e-06
 Reference value :  7.02048e-06
 Reference value :  7.05306e-06
 Reference value :  7.25011e-06
 Reference value :  7.25022e-06
 Reference value :  7.25069e-06
 Reference value :  7.25186e-06
 Reference value :  7.25344e-06
 Reference value :  7.25527e-06
 Reference value :  7.26175e-06
 Reference value :  7.31670e-06
 Reference value :  7.50003e-06
 Reference value :  7.50012e-06
 Reference value :  7.50034e-06
 Reference value :  7.50119e-06
 Reference value :  7.50235e-06
 Reference value :  7.50333e-06
 Reference value :  7.50464e-06
 Reference value :  7.50598e-06
 Reference value :  7.50749e-06
 Reference value :  7.50924e-06
 Reference value :  7.51143e-06
 Reference value :  7.53159e-06
 Reference value :  7.64261e-06
 Reference value :  7.75017e-06
 Reference value :  7.75022e-06
 Reference value :  7.75045e-06
 Reference value :  7.75139e-06
 Reference value :  7.75229e-06
 Reference value :  7.75344e-06
 Reference value :  7.75447e-06
 Reference value :  7.75578e-06
 Reference value :  7.75747e-06
 Reference value :  7.75958e-06
 Reference value :  7.76717e-06
 Reference value :  7.81769e-06
 Reference value :  8.00000e-06
 Reference value :  8.00003e-06
 Reference value :  8.00010e-06
 Reference value :  8.00012e-06
 Reference value :  8.00022e-06
 Reference value :  8.00052e-06
 Reference value :  8.00083e-06
 Reference value :  8.00158e-06
 Reference value :  8.00242e-06
 Reference value :  8.00290e-06
 Reference value :  8.00389e-06
 Reference value :  8.00484e-06
 Reference value :  8.00592e-06
 Reference value :  8.00742e-06
 Reference value :  8.00987e-06
 Reference value :  8.01384e-06
 Reference value :  8.02663e-06
 Reference value :  8.17260e-06
 Reference value :  8.25017e-06
 Reference value :  8.25045e-06
 Reference value :  8.25186e-06
 Reference value :  8.25452e-06
 Reference value :  8.25919e-06
 Reference value :  8.36246e-06
 Reference value :  8.43577e-06
 Reference value :  8.50000e-06
 Reference value :  8.50001e-06
 Reference value :  8.50010e-06
 Reference value :  8.50027e-06
 Reference value :  8.50158e-06
 Reference value :  8.50292e-06
 Reference value :  8.50446e-06
 Reference value :  8.50743e-06
 Reference value :  8.52219e-06
 Reference value :  8.52600e-06
 Reference value :  8.52884e-06
 Reference value :  8.53370e-06
 Reference value :  8.53656e-06
 Reference value :  8.54008e-06
 Reference value :  8.54373e-06
 Reference value :  8.55113e-06
 Reference value :  8.55688e-06
 Reference value :  8.56345e-06
 Reference value :  8.57071e-06
 Reference value :  8.58099e-06
 Reference value :  8.58523e-06
 Reference value :  8.59289e-06
 Reference value :  8.61916e-06
 Reference value :  8.71754e-06
 Reference value :  8.75013e-06
 Reference value :  8.75021e-06
 Reference value :  8.75032e-06
 Reference value :  8.75098e-06
 Reference value :  8.75185e-06
 Reference value :  8.75297e-06
 Reference value :  8.75340e-06
 Reference value :  8.75453e-06
 Reference value :  8.75731e-06
 Reference value :  8.76480e-06
 Reference value :  8.81184e-06
 Reference value :  9.00000e-06
 Reference value :  9.00007e-06
 Reference value :  9.00012e-06
 Reference value :  9.00034e-06
 Reference value :  9.00083e-06
 Reference value :  9.00154e-06
 Reference value :  9.00235e-06
 Reference value :  9.00281e-06
 Reference value :  9.00387e-06
 Reference value :  9.00534e-06
 Reference value :  9.00643e-06
 Reference value :  9.00878e-06
 Reference value :  9.01121e-06
 Reference value :  9.01241e-06
 Reference value :  9.01539e-06
 Reference value :  9.02545e-06
 Reference value :  9.13795e-06
 Reference value :  9.25013e-06
 Reference value :  9.25021e-06
 Reference value :  9.25032e-06
 Reference value :  9.25069e-06
 Reference value :  9.25139e-06
 Reference value :  9.25229e-06
 Reference value :  9.25343e-06
 Reference value :  9.25446e-06
 Reference value :  9.25576e-06
 Reference value :  9.25735e-06
 Reference value :  9.25949e-06
 Reference value :  9.26670e-06
 Reference value :  9.36398e-06
 Reference value :  9.50001e-06
 Reference value :  9.50010e-06
 Reference value :  9.50016e-06
 Reference value :  9.50052e-06
 Reference value :  9.50119e-06
 Reference value :  9.50201e-06
 Reference value :  9.50290e-06
 Reference value :  9.50390e-06
 Reference value :  9.50484e-06
 Reference value :  9.50664e-06
 Reference value :  9.50841e-06
 Reference value :  9.51015e-06
 Reference value :  9.51192e-06
 Reference value :  9.51359e-06
 Reference value :  9.51538e-06
 Reference value :  9.51751e-06
 Reference value :  9.53180e-06
 Reference value :  9.66657e-06
 Reference value :  9.75011e-06
 Reference value :  9.75020e-06
 Reference value :  9.75026e-06
 Reference value :  9.75069e-06
 Reference value :  9.75140e-06
 Reference value :  9.75229e-06
 Reference value :  9.75344e-06
 Reference value :  9.75527e-06
 Reference value :  9.76176e-06
 Reference value :  9.87566e-06
 Reference value :  1.00000e-05
 Reference value :  1.00001e-05
 Reference value :  1.00002e-05
 Reference value :  1.00005e-05
 Reference value :  1.00012e-05
 Reference value :  1.00019e-05
 Reference value :  1.00028e-05
 Reference value :  1.00039e-05
 Reference value :  1.00060e-05
 Reference value :  1.00075e-05
 Reference value :  1.00092e-05
 Reference value :  1.00114e-05
 Reference value :  1.00221e-05
 Reference value :  1.00790e-05
 Reference value :  1.02501e-05
 Reference value :  1.02502e-05
 Reference value :  1.02503e-05
 Reference value :  1.02507e-05
 Reference value :  1.02514e-05
 Reference value :  1.02523e-05
 Reference value :  1.02534e-05
 Reference value :  1.02545e-05
 Reference value :  1.02558e-05
 Reference value :  1.02575e-05
 Reference value :  1.02596e-05
 Reference value :  1.02673e-05
 Reference value :  1.03192e-05
 Reference value :  1.05000e-05
 Reference value :  1.05000e-05
 Reference value :  1.05001e-05
 Reference value :  1.05002e-05
 Reference value :  1.05005e-05
 Reference value :  1.05012e-05
 Reference value :  1.05020e-05
 Reference value :  1.05029e-05
 Reference value :  1.05039e-05
 Reference value :  1.05048e-05
 Reference value :  1.05066e-05
 Reference value :  1.05084e-05
 Reference value :  1.05102e-05
 Reference value :  1.05127e-05
 Reference value :  1.05145e-05
 Reference value :  1.05164e-05
 Reference value :  1.05247e-05
 Reference value :  1.06404e-05
 Reference value :  1.07501e-05
 Reference value :  1.07502e-05
 Reference value :  1.07507e-05
 Reference value :  1.07519e-05
 Reference value :  1.07534e-05
 Reference value :  1.07553e-05
 Reference value :  1.07590e-05
 Reference value :  1.07875e-05
 Reference value :  1.10000e-05
 Reference value :  1.10001e-05
 Reference value :  1.10002e-05
 Reference value :  1.10005e-05
 Reference value :  1.10012e-05
 Reference value :  1.10019e-05
 Reference value :  1.10028e-05
 Reference value :  1.10046e-05
 Reference value :  1.10060e-05
 Reference value :  1.10075e-05
 Reference value :  1.10103e-05
 Reference value :  1.10221e-05
 Reference value :  1.11423e-05
 Reference value :  1.12501e-05
 Reference value :  1.12502e-05
 Reference value :  1.12503e-05
 Reference value :  1.12510e-05
 Reference value :  1.12519e-05
 Reference value :  1.12530e-05
 Reference value :  1.12540e-05
 Reference value :  1.12550e-05
 Reference value :  1.12566e-05
 Reference value :  1.12596e-05
 Reference value :  1.12747e-05
 Reference value :  1.14971e-05
 Reference value :  1.15000e-05
 Reference value :  1.15001e-05
 Reference value :  1.15002e-05
 Reference value :  1.15008e-05
 Reference value :  1.15016e-05
 Reference value :  1.15024e-05
 Reference value :  1.15034e-05
 Reference value :  1.15044e-05
 Reference value :  1.15048e-05
 Reference value :  1.15066e-05
 Reference value :  1.15084e-05
 Reference value :  1.15102e-05
 Reference value :  1.15119e-05
 Reference value :  1.15136e-05
 Reference value :  1.15154e-05
 Reference value :  1.15174e-05
 Reference value :  1.15244e-05
 Reference value :  1.15393e-05
 Reference value :  1.15730e-05
 Reference value :  1.15869e-05
 Reference value :  1.15960e-05
 Reference value :  1.16135e-05
 Reference value :  1.16431e-05
 Reference value :  1.17451e-05
 Reference value :  1.17501e-05
 Reference value :  1.17502e-05
 Reference value :  1.17503e-05
 Reference value :  1.17510e-05
 Reference value :  1.17519e-05
 Reference value :  1.17530e-05
 Reference value :  1.17534e-05
 Reference value :  1.17546e-05
 Reference value :  1.17560e-05
 Reference value :  1.17616e-05
 Reference value :  1.17866e-05
 Reference value :  1.19867e-05
 Reference value :  1.20000e-05
 Reference value :  1.20001e-05
 Reference value :  1.20002e-05
 Reference value :  1.20003e-05
 Reference value :  1.20008e-05
 Reference value :  1.20016e-05
 Reference value :  1.20024e-05
 Reference value :  1.20029e-05
 Reference value :  1.20040e-05
 Reference value :  1.20055e-05
 Reference value :  1.20062e-05
 Reference value :  1.20077e-05
 Reference value :  1.20096e-05
 Reference value :  1.20155e-05
 Reference value :  1.20472e-05
 Reference value :  1.22501e-05
 Reference value :  1.22501e-05
 Reference value :  1.22502e-05
 Reference value :  1.22503e-05
 Reference value :  1.22507e-05
 Reference value :  1.22514e-05
 Reference value :  1.22523e-05
 Reference value :  1.22534e-05
 Reference value :  1.22545e-05
 Reference value :  1.22558e-05
 Reference value :  1.22603e-05
 Reference value :  1.22822e-05
 Reference value :  1.25000e-05
 Reference value :  1.25001e-05
 Reference value :  1.25001e-05
 Reference value :  1.25003e-05
 Reference value :  1.25008e-05
 Reference value :  1.25016e-05
 Reference value :  1.25029e-05
 Reference value :  1.25045e-05
 Reference value :  1.25055e-05
 Reference value :  1.25085e-05
 Reference value :  1.25112e-05
 Reference value :  1.25132e-05
 Reference value :  1.25152e-05
 Reference value :  1.25174e-05
 Reference value :  1.25240e-05
 Reference value :  1.25445e-05
 Reference value :  1.25527e-05
 Reference value :  1.25692e-05
 Reference value :  1.25756e-05
 Reference value :  1.25884e-05
 Reference value :  1.26660e-05
 Reference value :  1.27501e-05
 Reference value :  1.27502e-05
 Reference value :  1.27503e-05
 Reference value :  1.27507e-05
 Reference value :  1.27514e-05
 Reference value :  1.27523e-05
 Reference value :  1.27530e-05
 Reference value :  1.27534e-05
 Reference value :  1.27546e-05
 Reference value :  1.27559e-05
 Reference value :  1.27615e-05
 Reference value :  1.27857e-05
 Reference value :  1.28688e-05
 Reference value :  1.30000e-05
 Reference value :  1.30001e-05
 Reference value :  1.30001e-05
 Reference value :  1.30002e-05
 Reference value :  1.30003e-05
 Reference value :  1.30008e-05
 Reference value :  1.30015e-05
 Reference value :  1.30023e-05
 Reference value :  1.30028e-05
 Reference value :  1.30039e-05
 Reference value :  1.30054e-05
 Reference value :  1.30060e-05
 Reference value :  1.30075e-05
 Reference value :  1.30092e-05
 Reference value :  1.30114e-05
 Reference value :  1.30221e-05
 Reference value :  1.30792e-05
 Reference value :  1.32501e-05
 Reference value :  1.32502e-05
 Reference value :  1.32503e-05
 Reference value :  1.32504e-05
 Reference value :  1.32510e-05
 Reference value :  1.32514e-05
 Reference value :  1.32523e-05
 Reference value :  1.32534e-05
 Reference value :  1.32545e-05
 Reference value :  1.32558e-05
 Reference value :  1.32575e-05
 Reference value :  1.32596e-05
 Reference value :  1.32674e-05
 Reference value :  1.33198e-05
 Reference value :  1.35000e-05
 Reference value :  1.35001e-05
 Reference value :  1.35001e-05
 Reference value :  1.35003e-05
 Reference value :  1.35008e-05
 Reference value :  1.35016e-05
 Reference value :  1.35024e-05
 Reference value :  1.35029e-05
 Reference value :  1.35039e-05
 Reference value :  1.35048e-05
 Reference value :  1.35066e-05
 Reference value :  1.35084e-05
 Reference value :  1.35102e-05
 Reference value :  1.35119e-05
 Reference value :  1.35136e-05
 Reference value :  1.35155e-05
 Reference value :  1.35177e-05
 Reference value :  1.35215e-05
 Reference value :  1.35308e-05
 Reference value :  1.35379e-05
 Reference value :  1.35499e-05
 Reference value :  1.35543e-05
 Reference value :  1.35644e-05
 Reference value :  1.35862e-05
 Reference value :  1.36580e-05
 Reference value :  1.37501e-05
 Reference value :  1.37502e-05
 Reference value :  1.37503e-05
 Reference value :  1.37504e-05
 Reference value :  1.37510e-05
 Reference value :  1.37514e-05
 Reference value :  1.37523e-05
 Reference value :  1.37534e-05
 Reference value :  1.37546e-05
 Reference value :  1.37574e-05
 Reference value :  1.37723e-05
 Reference value :  1.39867e-05
 Reference value :  1.40001e-05
 Reference value :  1.40001e-05
 Reference value :  1.40003e-05
 Reference value :  1.40008e-05
 Reference value :  1.40016e-05
 Reference value :  1.40024e-05
 Reference value :  1.40034e-05
 Reference value :  1.40047e-05
 Reference value :  1.40062e-05
 Reference value :  1.40077e-05
 Reference value :  1.40109e-05
 Reference value :  1.40473e-05
 Reference value :  1.42501e-05
 Reference value :  1.42502e-05
 Reference value :  1.42504e-05
 Reference value :  1.42514e-05
 Reference value :  1.42530e-05
 Reference value :  1.42540e-05
 Reference value :  1.42558e-05
 Reference value :  1.42636e-05
 Reference value :  1.43567e-05
 Reference value :  1.45000e-05
 Reference value :  1.45001e-05
 Reference value :  1.45002e-05
 Reference value :  1.45008e-05
 Reference value :  1.45016e-05
 Reference value :  1.45029e-05
 Reference value :  1.45045e-05
 Reference value :  1.45055e-05
 Reference value :  1.45085e-05
 Reference value :  1.45112e-05
 Reference value :  1.45122e-05
 Reference value :  1.45143e-05
 Reference value :  1.45163e-05
 Reference value :  1.45208e-05
 Reference value :  1.45328e-05
 Reference value :  1.45435e-05
 Reference value :  1.45613e-05
 Reference value :  1.46007e-05
 Reference value :  1.47031e-05
 Reference value :  1.47501e-05
 Reference value :  1.47502e-05
 Reference value :  1.47504e-05
 Reference value :  1.47514e-05
 Reference value :  1.47530e-05
 Reference value :  1.47539e-05
 Reference value :  1.47559e-05
 Reference value :  1.47649e-05
 Reference value :  1.48688e-05
 Reference value :  1.50000e-05
 Reference value :  1.50001e-05
 Reference value :  1.50003e-05
 Reference value :  1.50008e-05
 Reference value :  1.50015e-05
 Reference value :  1.50028e-05
 Reference value :  1.50046e-05
 Reference value :  1.50060e-05
 Reference value :  1.50075e-05
 Reference value :  1.50103e-05
 Reference value :  1.50221e-05
 Reference value :  1.51426e-05
 Reference value :  1.52501e-05
 Reference value :  1.52502e-05
 Reference value :  1.52504e-05
 Reference value :  1.52514e-05
 Reference value :  1.52530e-05
 Reference value :  1.52540e-05
 Reference value :  1.52550e-05
 Reference value :  1.52566e-05
 Reference value :  1.52596e-05
 Reference value :  1.52748e-05
 Reference value :  1.54987e-05
 Reference value :  1.55000e-05
 Reference value :  1.55001e-05
 Reference value :  1.55003e-05
 Reference value :  1.55008e-05
 Reference value :  1.55016e-05
 Reference value :  1.55024e-05
 Reference value :  1.55034e-05
 Reference value :  1.55044e-05
 Reference value :  1.55053e-05
 Reference value :  1.55075e-05
 Reference value :  1.55093e-05
 Reference value :  1.55102e-05
 Reference value :  1.55119e-05
 Reference value :  1.55136e-05
 Reference value :  1.55165e-05
 Reference value :  1.55212e-05
 Reference value :  1.55661e-05
 Reference value :  1.57501e-05
 Reference value :  1.57502e-05
 Reference value :  1.57504e-05
 Reference value :  1.57514e-05
 Reference value :  1.57530e-05
 Reference value :  1.57540e-05
 Reference value :  1.57560e-05
 Reference value :  1.57618e-05
 Reference value :  1.58171e-05
 Reference value :  1.60000e-05
 Reference value :  1.60001e-05
 Reference value :  1.60002e-05
 Reference value :  1.60005e-05
 Reference value :  1.60012e-05
 Reference value :  1.60019e-05
 Reference value :  1.60028e-05
 Reference value :  1.60039e-05
 Reference value :  1.60054e-05
 Reference value :  1.60060e-05
 Reference value :  1.60075e-05
 Reference value :  1.60103e-05
 Reference value :  1.60221e-05
 Reference value :  1.61421e-05
 Reference value :  1.62501e-05
 Reference value :  1.62502e-05
 Reference value :  1.62507e-05
 Reference value :  1.62519e-05
 Reference value :  1.62534e-05
 Reference value :  1.62550e-05
 Reference value :  1.62566e-05
 Reference value :  1.62596e-05
 Reference value :  1.63192e-05
 Reference value :  1.65000e-05
 Reference value :  1.65002e-05
 Reference value :  1.65008e-05
 Reference value :  1.65020e-05
 Reference value :  1.65029e-05
 Reference value :  1.65044e-05
 Reference value :  1.65059e-05
 Reference value :  1.65074e-05
 Reference value :  1.65090e-05
 Reference value :  1.65128e-05
 Reference value :  1.65148e-05
 Reference value :  1.65210e-05
 Reference value :  1.65357e-05
 Reference value :  1.65912e-05
 Reference value :  1.66169e-05
 Reference value :  1.66486e-05
 Reference value :  1.66726e-05
 Reference value :  1.67258e-05
 Reference value :  1.67501e-05
 Reference value :  1.67502e-05
 Reference value :  1.67503e-05
 Reference value :  1.67504e-05
 Reference value :  1.67510e-05
 Reference value :  1.67514e-05
 Reference value :  1.67523e-05
 Reference value :  1.67536e-05
 Reference value :  1.67553e-05
 Reference value :  1.67577e-05
 Reference value :  1.67663e-05
 Reference value :  1.68217e-05
 Reference value :  1.70000e-05
 Reference value :  1.70000e-05
 Reference value :  1.70000e-05
 Reference value :  1.70000e-05
 Reference value :  1.70000e-05
 Reference value :  1.70001e-05
 Reference value :  1.70002e-05
 Reference value :  1.70004e-05
 Reference value :  1.70012e-05
 Reference value :  1.70020e-05
 Reference value :  1.70029e-05
 Reference value :  1.70040e-05
 Reference value :  1.70045e-05
 Reference value :  1.70055e-05
 Reference value :  1.70120e-05
 Reference value :  1.70224e-05
 Reference value :  1.70262e-05
 Reference value :  1.70291e-05
 Reference value :  1.70341e-05
 Reference value :  1.70370e-05
 Reference value :  1.70426e-05
 Reference value :  1.70481e-05
 Reference value :  1.70594e-05
 Reference value :  1.70802e-05
 Reference value :  1.70854e-05
 Reference value :  1.70946e-05
 Reference value :  1.71110e-05
 Reference value :  1.71661e-05
 Reference value :  1.72501e-05
 Reference value :  1.72502e-05
 Reference value :  1.72503e-05
 Reference value :  1.72507e-05
 Reference value :  1.72514e-05
 Reference value :  1.72530e-05
 Reference value :  1.72534e-05
 Reference value :  1.72545e-05
 Reference value :  1.72573e-05
 Reference value :  1.72647e-05
 Reference value :  1.73114e-05
 Reference value :  1.75000e-05
 Reference value :  1.75001e-05
 Reference value :  1.75002e-05
 Reference value :  1.75005e-05
 Reference value :  1.75012e-05
 Reference value :  1.75019e-05
 Reference value :  1.75028e-05
 Reference value :  1.75039e-05
 Reference value :  1.75064e-05
 Reference value :  1.75088e-05
 Reference value :  1.75112e-05
 Reference value :  1.75124e-05
 Reference value :  1.75154e-05
 Reference value :  1.75254e-05
 Reference value :  1.75785e-05
 Reference value :  1.77501e-05
 Reference value :  1.77502e-05
 Reference value :  1.77503e-05
 Reference value :  1.77507e-05
 Reference value :  1.77514e-05
 Reference value :  1.77530e-05
 Reference value :  1.77540e-05
 Reference value :  1.77550e-05
 Reference value :  1.77566e-05
 Reference value :  1.77582e-05
 Reference value :  1.77635e-05
 Reference value :  1.77831e-05
 Reference value :  1.80000e-05
 Reference value :  1.80012e-05
 Reference value :  1.80037e-05
 Reference value :  1.80049e-05
 Reference value :  1.80073e-05
 Reference value :  1.80093e-05
 Reference value :  1.80114e-05
 Reference value :  1.80135e-05
 Reference value :  1.80155e-05
 Reference value :  1.80192e-05
 Reference value :  1.80281e-05
 Reference value :  1.80686e-05
 Reference value :  1.82339e-05
 Reference value :  1.82501e-05
 Reference value :  1.82502e-05
 Reference value :  1.82503e-05
 Reference value :  1.82507e-05
 Reference value :  1.82514e-05
 Reference value :  1.82523e-05
 Reference value :  1.82533e-05
 Reference value :  1.82544e-05
 Reference value :  1.82568e-05
 Reference value :  1.82633e-05
 Reference value :  1.83042e-05
 Reference value :  1.85000e-05
 Reference value :  1.85001e-05
 Reference value :  1.85001e-05
 Reference value :  1.85003e-05
 Reference value :  1.85008e-05
 Reference value :  1.85015e-05
 Reference value :  1.85023e-05
 Reference value :  1.85028e-05
 Reference value :  1.85039e-05
 Reference value :  1.85054e-05
 Reference value :  1.85060e-05
 Reference value :  1.85075e-05
 Reference value :  1.85092e-05
 Reference value :  1.85114e-05
 Reference value :  1.85315e-05
 Reference value :  1.87501e-05
 Reference value :  1.87502e-05
 Reference value :  1.87503e-05
 Reference value :  1.87510e-05
 Reference value :  1.87514e-05
 Reference value :  1.87523e-05
 Reference value :  1.87534e-05
 Reference value :  1.87545e-05
 Reference value :  1.87558e-05
 Reference value :  1.87583e-05
 Reference value :  1.87636e-05
 Reference value :  1.88186e-05
 Reference value :  1.90000e-05
 Reference value :  1.90001e-05
 Reference value :  1.90003e-05
 Reference value :  1.90008e-05
 Reference value :  1.90016e-05
 Reference value :  1.90024e-05
 Reference value :  1.90034e-05
 Reference value :  1.90044e-05
 Reference value :  1.90048e-05
 Reference value :  1.90059e-05
 Reference value :  1.90076e-05
 Reference value :  1.90084e-05
 Reference value :  1.90093e-05
 Reference value :  1.90102e-05
 Reference value :  1.90119e-05
 Reference value :  1.90136e-05
 Reference value :  1.90154e-05
 Reference value :  1.90164e-05
 Reference value :  1.90192e-05
 Reference value :  1.90315e-05
 Reference value :  1.90923e-05
 Reference value :  1.92501e-05
 Reference value :  1.92502e-05
 Reference value :  1.92503e-05
 Reference value :  1.92507e-05
 Reference value :  1.92514e-05
 Reference value :  1.92523e-05
 Reference value :  1.92534e-05
 Reference value :  1.92553e-05
 Reference value :  1.92590e-05
 Reference value :  1.92875e-05
 Reference value :  1.94865e-05
 Reference value :  1.95002e-05
 Reference value :  1.95010e-05
 Reference value :  1.95015e-05
 Reference value :  1.95030e-05
 Reference value :  1.95051e-05
 Reference value :  1.95058e-05
 Reference value :  1.95075e-05
 Reference value :  1.95104e-05
 Reference value :  1.95222e-05
 Reference value :  1.96394e-05
 Reference value :  1.97501e-05
 Reference value :  1.97502e-05
 Reference value :  1.97503e-05
 Reference value :  1.97510e-05
 Reference value :  1.97519e-05
 Reference value :  1.97534e-05
 Reference value :  1.97550e-05
 Reference value :  1.97575e-05
 Reference value :  1.97610e-05
 Reference value :  1.97744e-05
 Reference value :  1.98754e-05
 Reference value :  2.00000e-05
 Reference value :  2.00001e-05
 Reference value :  2.00002e-05
 Reference value :  2.00005e-05
 Reference value :  2.00012e-05
 Reference value :  2.00020e-05
 Reference value :  2.00029e-05
 Reference value :  2.00039e-05
 Reference value :  2.00048e-05
 Reference value :  2.00076e-05
 Reference value :  2.00093e-05
 Reference value :  2.00102e-05
 Reference value :  2.00119e-05
 Reference value :  2.00136e-05
 Reference value :  2.00154e-05
 Reference value :  2.00195e-05
 Reference value :  2.00413e-05
 Reference value :  2.00743e-05
 Reference value :  2.00868e-05
 Reference value :  2.00929e-05
 Reference value :  2.01041e-05
 Reference value :  2.01299e-05
 Reference value :  2.01778e-05
 Reference value :  2.02501e-05
 Reference value :  2.02502e-05
 Reference value :  2.02504e-05
 Reference value :  2.02514e-05
 Reference value :  2.02530e-05
 Reference value :  2.02540e-05
 Reference value :  2.02560e-05
 Reference value :  2.02652e-05
 Reference value :  2.03154e-05
 Reference value :  2.05002e-05
 Reference value :  2.05009e-05
 Reference value :  2.05019e-05
 Reference value :  2.05028e-05
 Reference value :  2.05039e-05
 Reference value :  2.05060e-05
 Reference value :  2.05074e-05
 Reference value :  2.05102e-05
 Reference value :  2.05219e-05
 Reference value :  2.05979e-05
 Reference value :  2.07501e-05
 Reference value :  2.07502e-05
 Reference value :  2.07502e-05
 Reference value :  2.07503e-05
 Reference value :  2.07504e-05
 Reference value :  2.07510e-05
 Reference value :  2.07519e-05
 Reference value :  2.07530e-05
 Reference value :  2.07534e-05
 Reference value :  2.07545e-05
 Reference value :  2.07558e-05
 Reference value :  2.07602e-05
 Reference value :  2.07819e-05
 Reference value :  2.09535e-05
 Reference value :  2.10000e-05
 Reference value :  2.10001e-05
 Reference value :  2.10002e-05
 Reference value :  2.10003e-05
 Reference value :  2.10008e-05
 Reference value :  2.10016e-05
 Reference value :  2.10024e-05
 Reference value :  2.10034e-05
 Reference value :  2.10050e-05
 Reference value :  2.10071e-05
 Reference value :  2.10112e-05
 Reference value :  2.10143e-05
 Reference value :  2.10152e-05
 Reference value :  2.10191e-05
 Reference value :  2.10289e-05
 Reference value :  2.10467e-05
 Reference value :  2.10555e-05
 Reference value :  2.10623e-05
 Reference value :  2.10761e-05
 Reference value :  2.10891e-05
 Reference value :  2.11192e-05
 Reference value :  2.12269e-05
 Reference value :  2.12501e-05
 Reference value :  2.12502e-05
 Reference value :  2.12503e-05
 Reference value :  2.12507e-05
 Reference value :  2.12514e-05
 Reference value :  2.12530e-05
 Reference value :  2.12539e-05
 Reference value :  2.12553e-05
 Reference value :  2.12588e-05
 Reference value :  2.12857e-05
 Reference value :  2.15000e-05
 Reference value :  2.15001e-05
 Reference value :  2.15001e-05
 Reference value :  2.15003e-05
 Reference value :  2.15008e-05
 Reference value :  2.15015e-05
 Reference value :  2.15028e-05
 Reference value :  2.15039e-05
 Reference value :  2.15054e-05
 Reference value :  2.15060e-05
 Reference value :  2.15075e-05
 Reference value :  2.15103e-05
 Reference value :  2.15167e-05
 Reference value :  2.15791e-05
 Reference value :  2.17501e-05
 Reference value :  2.17502e-05
 Reference value :  2.17503e-05
 Reference value :  2.17510e-05
 Reference value :  2.17519e-05
 Reference value :  2.17530e-05
 Reference value :  2.17540e-05
 Reference value :  2.17558e-05
 Reference value :  2.17584e-05
 Reference value :  2.17636e-05
 Reference value :  2.18798e-05
 Reference value :  2.20000e-05
 Reference value :  2.20001e-05
 Reference value :  2.20005e-05
 Reference value :  2.20016e-05
 Reference value :  2.20029e-05
 Reference value :  2.20039e-05
 Reference value :  2.20054e-05
 Reference value :  2.20077e-05
 Reference value :  2.20093e-05
 Reference value :  2.20101e-05
 Reference value :  2.20119e-05
 Reference value :  2.20136e-05
 Reference value :  2.20154e-05
 Reference value :  2.20193e-05
 Reference value :  2.20305e-05
 Reference value :  2.20435e-05
 Reference value :  2.20498e-05
 Reference value :  2.20544e-05
 Reference value :  2.20632e-05
 Reference value :  2.20861e-05
 Reference value :  2.21589e-05
 Reference value :  2.22501e-05
 Reference value :  2.22502e-05
 Reference value :  2.22503e-05
 Reference value :  2.22510e-05
 Reference value :  2.22519e-05
 Reference value :  2.22530e-05
 Reference value :  2.22540e-05
 Reference value :  2.22552e-05
 Reference value :  2.22589e-05
 Reference value :  2.22867e-05
 Reference value :  2.25000e-05
 Reference value :  2.25001e-05
 Reference value :  2.25002e-05
 Reference value :  2.25008e-05
 Reference value :  2.25016e-05
 Reference value :  2.25029e-05
 Reference value :  2.25047e-05
 Reference value :  2.25062e-05
 Reference value :  2.25077e-05
 Reference value :  2.25096e-05
 Reference value :  2.25125e-05
 Reference value :  2.25295e-05
 Reference value :  2.27501e-05
 Reference value :  2.27502e-05
 Reference value :  2.27502e-05
 Reference value :  2.27507e-05
 Reference value :  2.27514e-05
 Reference value :  2.27530e-05
 Reference value :  2.27534e-05
 Reference value :  2.27545e-05
 Reference value :  2.27566e-05
 Reference value :  2.27697e-05
 Reference value :  2.29551e-05
 Reference value :  2.30008e-05
 Reference value :  2.30031e-05
 Reference value :  2.30045e-05
 Reference value :  2.30056e-05
 Reference value :  2.30097e-05
 Reference value :  2.30122e-05
 Reference value :  2.30140e-05
 Reference value :  2.30158e-05
 Reference value :  2.30201e-05
 Reference value :  2.30327e-05
 Reference value :  2.30464e-05
 Reference value :  2.30575e-05
 Reference value :  2.30791e-05
 Reference value :  2.31220e-05
 Reference value :  2.32501e-05
 Reference value :  2.32502e-05
 Reference value :  2.32502e-05
 Reference value :  2.32504e-05
 Reference value :  2.32514e-05
 Reference value :  2.32530e-05
 Reference value :  2.32539e-05
 Reference value :  2.32559e-05
 Reference value :  2.32648e-05
 Reference value :  2.33642e-05
 Reference value :  2.35000e-05
 Reference value :  2.35001e-05
 Reference value :  2.35003e-05
 Reference value :  2.35012e-05
 Reference value :  2.35019e-05
 Reference value :  2.35028e-05
 Reference value :  2.35046e-05
 Reference value :  2.35060e-05
 Reference value :  2.35075e-05
 Reference value :  2.35103e-05
 Reference value :  2.35222e-05
 Reference value :  2.36435e-05
 Reference value :  2.37501e-05
 Reference value :  2.37502e-05
 Reference value :  2.37503e-05
 Reference value :  2.37507e-05
 Reference value :  2.37514e-05
 Reference value :  2.37523e-05
 Reference value :  2.37530e-05
 Reference value :  2.37534e-05
 Reference value :  2.37540e-05
 Reference value :  2.37545e-05
 Reference value :  2.37558e-05
 Reference value :  2.37583e-05
 Reference value :  2.37610e-05
 Reference value :  2.37743e-05
 Reference value :  2.38745e-05
 Reference value :  2.40000e-05
 Reference value :  2.40001e-05
 Reference value :  2.40001e-05
 Reference value :  2.40002e-05
 Reference value :  2.40005e-05
 Reference value :  2.40008e-05
 Reference value :  2.40016e-05
 Reference value :  2.40024e-05
 Reference value :  2.40029e-05
 Reference value :  2.40039e-05
 Reference value :  2.40048e-05
 Reference value :  2.40066e-05
 Reference value :  2.40076e-05
 Reference value :  2.40093e-05
 Reference value :  2.40102e-05
 Reference value :  2.40110e-05
 Reference value :  2.40126e-05
 Reference value :  2.40144e-05
 Reference value :  2.40163e-05
 Reference value :  2.40189e-05
 Reference value :  2.40262e-05
 Reference value :  2.40550e-05
 Reference value :  2.42501e-05
 Reference value :  2.42502e-05
 Reference value :  2.42503e-05
 Reference value :  2.42507e-05
 Reference value :  2.42514e-05
 Reference value :  2.42530e-05
 Reference value :  2.42540e-05
 Reference value :  2.42575e-05
 Reference value :  2.42874e-05
 Reference value :  2.45000e-05
 Reference value :  2.45001e-05
 Reference value :  2.45003e-05
 Reference value :  2.45012e-05
 Reference value :  2.45019e-05
 Reference value :  2.45028e-05
 Reference value :  2.45046e-05
 Reference value :  2.45060e-05
 Reference value :  2.45075e-05
 Reference value :  2.45092e-05
 Reference value :  2.45114e-05
 Reference value :  2.45221e-05
 Reference value :  2.46424e-05
 Reference value :  2.47502e-05
 Reference value :  2.47503e-05
 Reference value :  2.47507e-05
 Reference value :  2.47514e-05
 Reference value :  2.47523e-05
 Reference value :  2.47534e-05
 Reference value :  2.47545e-05
 Reference value :  2.47558e-05
 Reference value :  2.47575e-05
 Reference value :  2.47610e-05
 Reference value :  2.49909e-05
 Reference value :  2.50001e-05
 Reference value :  2.50002e-05
 Reference value :  2.50008e-05
 Reference value :  2.50012e-05
 Reference value :  2.50024e-05
 Reference value :  2.50034e-05
 Reference value :  2.50044e-05
 Reference value :  2.50059e-05
 Reference value :  2.50090e-05
 Reference value :  2.50138e-05
 Reference value :  2.50266e-05
 Reference value :  2.50592e-05
 Reference value :  2.50995e-05
 Reference value :  2.51804e-05
 Reference value :  2.52502e-05
 Reference value :  2.52503e-05
 Reference value :  2.52507e-05
 Reference value :  2.52514e-05
 Reference value :  2.52530e-05
 Reference value :  2.52545e-05
 Reference value :  2.52562e-05
 Reference value :  2.52663e-05
 Reference value :  2.53821e-05
 Reference value :  2.55000e-05
 Reference value :  2.55000e-05
 Reference value :  2.55001e-05
 Reference value :  2.55001e-05
 Reference value :  2.55004e-05
 Reference value :  2.55016e-05
 Reference value :  2.55029e-05
 Reference value :  2.55045e-05
 Reference value :  2.55062e-05
 Reference value :  2.55224e-05
 Reference value :  2.55262e-05
 Reference value :  2.55320e-05
 Reference value :  2.55355e-05
 Reference value :  2.55404e-05
 Reference value :  2.55604e-05
 Reference value :  2.55823e-05
 Reference value :  2.56017e-05
 Reference value :  2.56394e-05
 Reference value :  2.57501e-05
 Reference value :  2.57503e-05
 Reference value :  2.57510e-05
 Reference value :  2.57523e-05
 Reference value :  2.57534e-05
 Reference value :  2.57559e-05
 Reference value :  2.57714e-05
 Reference value :  2.60000e-05
 Reference value :  2.60001e-05
 Reference value :  2.60002e-05
 Reference value :  2.60003e-05
 Reference value :  2.60008e-05
 Reference value :  2.60015e-05
 Reference value :  2.60028e-05
 Reference value :  2.60039e-05
 Reference value :  2.60064e-05
 Reference value :  2.60088e-05
 Reference value :  2.60112e-05
 Reference value :  2.60124e-05
 Reference value :  2.60154e-05
 Reference value :  2.60484e-05
 Reference value :  2.62501e-05
 Reference value :  2.62502e-05
 Reference value :  2.62503e-05
 Reference value :  2.62510e-05
 Reference value :  2.62519e-05
 Reference value :  2.62530e-05
 Reference value :  2.62540e-05
 Reference value :  2.62550e-05
 Reference value :  2.62566e-05
 Reference value :  2.62609e-05
 Reference value :  2.63037e-05
 Reference value :  2.65012e-05
 Reference value :  2.65037e-05
 Reference value :  2.65049e-05
 Reference value :  2.65073e-05
 Reference value :  2.65093e-05
 Reference value :  2.65114e-05
 Reference value :  2.65135e-05
 Reference value :  2.65155e-05
 Reference value :  2.65177e-05
 Reference value :  2.65237e-05
 Reference value :  2.65479e-05
 Reference value :  2.66675e-05
 Reference value :  2.67501e-05
 Reference value :  2.67502e-05
 Reference value :  2.67502e-05
 Reference value :  2.67507e-05
 Reference value :  2.67514e-05
 Reference value :  2.67523e-05
 Reference value :  2.67533e-05
 Reference value :  2.67544e-05
 Reference value :  2.67557e-05
 Reference value :  2.67633e-05
 Reference value :  2.68041e-05
 Reference value :  2.70000e-05
 Reference value :  2.70001e-05
 Reference value :  2.70001e-05
 Reference value :  2.70002e-05
 Reference value :  2.70005e-05
 Reference value :  2.70012e-05
 Reference value :  2.70015e-05
 Reference value :  2.70023e-05
 Reference value :  2.70028e-05
 Reference value :  2.70033e-05
 Reference value :  2.70046e-05
 Reference value :  2.70060e-05
 Reference value :  2.70075e-05
 Reference value :  2.70092e-05
 Reference value :  2.70103e-05
 Reference value :  2.70167e-05
 Reference value :  2.70315e-05
 Reference value :  2.71422e-05
 Reference value :  2.72501e-05
 Reference value :  2.72502e-05
 Reference value :  2.72502e-05
 Reference value :  2.72503e-05
 Reference value :  2.72507e-05
 Reference value :  2.72510e-05
 Reference value :  2.72514e-05
 Reference value :  2.72523e-05
 Reference value :  2.72530e-05
 Reference value :  2.72534e-05
 Reference value :  2.72540e-05
 Reference value :  2.72545e-05
 Reference value :  2.72558e-05
 Reference value :  2.72566e-05
 Reference value :  2.72583e-05
 Reference value :  2.72596e-05
 Reference value :  2.72636e-05
 Reference value :  2.72893e-05
 Reference value :  2.74949e-05
 Reference value :  2.75000e-05
 Reference value :  2.75001e-05
 Reference value :  2.75003e-05
 Reference value :  2.75008e-05
 Reference value :  2.75016e-05
 Reference value :  2.75024e-05
 Reference value :  2.75034e-05
 Reference value :  2.75044e-05
 Reference value :  2.75053e-05
 Reference value :  2.75076e-05
 Reference value :  2.75084e-05
 Reference value :  2.75102e-05
 Reference value :  2.75119e-05
 Reference value :  2.75136e-05
 Reference value :  2.75164e-05
 Reference value :  2.75210e-05
 Reference value :  2.75422e-05
 Reference value :  2.77246e-05
 Reference value :  2.77501e-05
 Reference value :  2.77502e-05
 Reference value :  2.77507e-05
 Reference value :  2.77514e-05
 Reference value :  2.77530e-05
 Reference value :  2.77540e-05
 Reference value :  2.77560e-05
 Reference value :  2.77654e-05
 Reference value :  2.78756e-05
 Reference value :  2.80003e-05
 Reference value :  2.80011e-05
 Reference value :  2.80017e-05
 Reference value :  2.80026e-05
 Reference value :  2.80044e-05
 Reference value :  2.80058e-05
 Reference value :  2.80074e-05
 Reference value :  2.80101e-05
 Reference value :  2.80171e-05
 Reference value :  2.81139e-05
 Reference value :  2.82501e-05
 Reference value :  2.82502e-05
 Reference value :  2.82507e-05
 Reference value :  2.82514e-05
 Reference value :  2.82530e-05
 Reference value :  2.82539e-05
 Reference value :  2.82550e-05
 Reference value :  2.82565e-05
 Reference value :  2.82594e-05
 Reference value :  2.82664e-05
 Reference value :  2.83596e-05
 Reference value :  2.85000e-05
 Reference value :  2.85001e-05
 Reference value :  2.85002e-05
 Reference value :  2.85005e-05
 Reference value :  2.85012e-05
 Reference value :  2.85016e-05
 Reference value :  2.85024e-05
 Reference value :  2.85029e-05
 Reference value :  2.85039e-05
 Reference value :  2.85048e-05
 Reference value :  2.85066e-05
 Reference value :  2.85084e-05
 Reference value :  2.85102e-05
 Reference value :  2.85119e-05
 Reference value :  2.85136e-05
 Reference value :  2.85166e-05
 Reference value :  2.85253e-05
 Reference value :  2.85610e-05
 Reference value :  2.85742e-05
 Reference value :  2.85863e-05
 Reference value :  2.85917e-05
 Reference value :  2.86024e-05
 Reference value :  2.86432e-05
 Reference value :  2.87029e-05
 Reference value :  2.87501e-05
 Reference value :  2.87502e-05
 Reference value :  2.87507e-05
 Reference value :  2.87514e-05
 Reference value :  2.87530e-05
 Reference value :  2.87540e-05
 Reference value :  2.87552e-05
 Reference value :  2.87616e-05
 Reference value :  2.88154e-05
 Reference value :  2.90002e-05
 Reference value :  2.90009e-05
 Reference value :  2.90015e-05
 Reference value :  2.90028e-05
 Reference value :  2.90038e-05
 Reference value :  2.90059e-05
 Reference value :  2.90083e-05
 Reference value :  2.90102e-05
 Reference value :  2.90557e-05
 Reference value :  2.92501e-05
 Reference value :  2.92502e-05
 Reference value :  2.92504e-05
 Reference value :  2.92514e-05
 Reference value :  2.92530e-05
 Reference value :  2.92540e-05
 Reference value :  2.92550e-05
 Reference value :  2.92582e-05
 Reference value :  2.92819e-05
 Reference value :  2.95000e-05
 Reference value :  2.95001e-05
 Reference value :  2.95002e-05
 Reference value :  2.95008e-05
 Reference value :  2.95016e-05
 Reference value :  2.95029e-05
 Reference value :  2.95045e-05
 Reference value :  2.95055e-05
 Reference value :  2.95100e-05
 Reference value :  2.95122e-05
 Reference value :  2.95152e-05
 Reference value :  2.95191e-05
 Reference value :  2.95365e-05
 Reference value :  2.95547e-05
 Reference value :  2.95714e-05
 Reference value :  2.95910e-05
 Reference value :  2.97501e-05
 Reference value :  2.97502e-05
 Reference value :  2.97504e-05
 Reference value :  2.97514e-05
 Reference value :  2.97530e-05
 Reference value :  2.97546e-05
 Reference value :  2.97588e-05
 Reference value :  2.98134e-05
 Reference value :  3.00000e-05
 Reference value :  3.00001e-05
 Reference value :  3.00005e-05
 Reference value :  3.00012e-05
 Reference value :  3.00019e-05
 Reference value :  3.00028e-05
 Reference value :  3.00039e-05
 Reference value :  3.00054e-05
 Reference value :  3.00060e-05
 Reference value :  3.00075e-05
 Reference value :  3.00103e-05
 Reference value :  3.00221e-05
 Reference value :  3.02501e-05
 Reference value :  3.02502e-05
 Reference value :  3.02503e-05
 Reference value :  3.02510e-05
 Reference value :  3.02519e-05
 Reference value :  3.02530e-05
 Reference value :  3.02534e-05
 Reference value :  3.02545e-05
 Reference value :  3.02558e-05
 Reference value :  3.02584e-05
 Reference value :  3.02610e-05
 Reference value :  3.02749e-05
 Reference value :  3.03798e-05
 Reference value :  3.05000e-05
 Reference value :  3.05001e-05
 Reference value :  3.05002e-05
 Reference value :  3.05008e-05
 Reference value :  3.05016e-05
 Reference value :  3.05024e-05
 Reference value :  3.05034e-05
 Reference value :  3.05044e-05
 Reference value :  3.05053e-05
 Reference value :  3.05076e-05
 Reference value :  3.05093e-05
 Reference value :  3.05101e-05
 Reference value :  3.05119e-05
 Reference value :  3.05145e-05
 Reference value :  3.05175e-05
 Reference value :  3.05293e-05
 Reference value :  3.05416e-05
 Reference value :  3.05516e-05
 Reference value :  3.05592e-05
 Reference value :  3.05965e-05
 Reference value :  3.07501e-05
 Reference value :  3.07502e-05
 Reference value :  3.07502e-05
 Reference value :  3.07504e-05
 Reference value :  3.07514e-05
 Reference value :  3.07523e-05
 Reference value :  3.07534e-05
 Reference value :  3.07546e-05
 Reference value :  3.07560e-05
 Reference value :  3.07616e-05
 Reference value :  3.07866e-05
 Reference value :  3.09870e-05
 Reference value :  3.10000e-05
 Reference value :  3.10001e-05
 Reference value :  3.10002e-05
 Reference value :  3.10008e-05
 Reference value :  3.10016e-05
 Reference value :  3.10024e-05
 Reference value :  3.10029e-05
 Reference value :  3.10034e-05
 Reference value :  3.10047e-05
 Reference value :  3.10062e-05
 Reference value :  3.10077e-05
 Reference value :  3.10109e-05
 Reference value :  3.10296e-05
 Reference value :  3.12501e-05
 Reference value :  3.12502e-05
 Reference value :  3.12502e-05
 Reference value :  3.12504e-05
 Reference value :  3.12510e-05
 Reference value :  3.12514e-05
 Reference value :  3.12523e-05
 Reference value :  3.12530e-05
 Reference value :  3.12534e-05
 Reference value :  3.12540e-05
 Reference value :  3.12545e-05
 Reference value :  3.12550e-05
 Reference value :  3.12558e-05
 Reference value :  3.12582e-05
 Reference value :  3.12697e-05
 Reference value :  3.13563e-05
 Reference value :  3.15000e-05
 Reference value :  3.15001e-05
 Reference value :  3.15001e-05
 Reference value :  3.15002e-05
 Reference value :  3.15008e-05
 Reference value :  3.15016e-05
 Reference value :  3.15029e-05
 Reference value :  3.15040e-05
 Reference value :  3.15050e-05
 Reference value :  3.15071e-05
 Reference value :  3.15112e-05
 Reference value :  3.15132e-05
 Reference value :  3.15152e-05
 Reference value :  3.15191e-05
 Reference value :  3.15288e-05
 Reference value :  3.15524e-05
 Reference value :  3.15695e-05
 Reference value :  3.15871e-05
 Reference value :  3.16089e-05
 Reference value :  3.16583e-05
 Reference value :  3.17501e-05
 Reference value :  3.17502e-05
 Reference value :  3.17502e-05
 Reference value :  3.17504e-05
 Reference value :  3.17514e-05
 Reference value :  3.17530e-05
 Reference value :  3.17539e-05
 Reference value :  3.17573e-05
 Reference value :  3.17719e-05
 Reference value :  3.20000e-05
 Reference value :  3.20001e-05
 Reference value :  3.20002e-05
 Reference value :  3.20008e-05
 Reference value :  3.20015e-05
 Reference value :  3.20028e-05
 Reference value :  3.20039e-05
 Reference value :  3.20060e-05
 Reference value :  3.20075e-05
 Reference value :  3.20103e-05
 Reference value :  3.20316e-05
 Reference value :  3.22501e-05
 Reference value :  3.22502e-05
 Reference value :  3.22504e-05
 Reference value :  3.22514e-05
 Reference value :  3.22530e-05
 Reference value :  3.22540e-05
 Reference value :  3.22558e-05
 Reference value :  3.22596e-05
 Reference value :  3.22898e-05
 Reference value :  3.25000e-05
 Reference value :  3.25001e-05
 Reference value :  3.25002e-05
 Reference value :  3.25008e-05
 Reference value :  3.25016e-05
 Reference value :  3.25029e-05
 Reference value :  3.25044e-05
 Reference value :  3.25059e-05
 Reference value :  3.25076e-05
 Reference value :  3.25102e-05
 Reference value :  3.25118e-05
 Reference value :  3.25153e-05
 Reference value :  3.25189e-05
 Reference value :  3.25401e-05
 Reference value :  3.27080e-05
 Reference value :  3.27501e-05
 Reference value :  3.27503e-05
 Reference value :  3.27510e-05
 Reference value :  3.27519e-05
 Reference value :  3.27530e-05
 Reference value :  3.27540e-05
 Reference value :  3.27560e-05
 Reference value :  3.27654e-05
 Reference value :  3.28753e-05
 Reference value :  3.30000e-05
 Reference value :  3.30001e-05
 Reference value :  3.30002e-05
 Reference value :  3.30005e-05
 Reference value :  3.30012e-05
 Reference value :  3.30019e-05
 Reference value :  3.30028e-05
 Reference value :  3.30039e-05
 Reference value :  3.30060e-05
 Reference value :  3.30075e-05
 Reference value :  3.30103e-05
 Reference value :  3.30221e-05
 Reference value :  3.30791e-05
 Reference value :  3.32501e-05
 Reference value :  3.32502e-05
 Reference value :  3.32503e-05
 Reference value :  3.32507e-05
 Reference value :  3.32514e-05
 Reference value :  3.32530e-05
 Reference value :  3.32540e-05
 Reference value :  3.32550e-05
 Reference value :  3.32575e-05
 Reference value :  3.32596e-05
 Reference value :  3.32888e-05
 Reference value :  3.35002e-05
 Reference value :  3.35007e-05
 Reference value :  3.35015e-05
 Reference value :  3.35023e-05
 Reference value :  3.35032e-05
 Reference value :  3.35037e-05
 Reference value :  3.35047e-05
 Reference value :  3.35063e-05
 Reference value :  3.35078e-05
 Reference value :  3.35091e-05
 Reference value :  3.35107e-05
 Reference value :  3.35136e-05
 Reference value :  3.35156e-05
 Reference value :  3.35291e-05
 Reference value :  3.35345e-05
 Reference value :  3.35416e-05
 Reference value :  3.35598e-05
 Reference value :  3.36238e-05
 Reference value :  3.37501e-05
 Reference value :  3.37502e-05
 Reference value :  3.37503e-05
 Reference value :  3.37510e-05
 Reference value :  3.37519e-05
 Reference value :  3.37530e-05
 Reference value :  3.37553e-05
 Reference value :  3.37591e-05
 Reference value :  3.37915e-05
 Reference value :  3.40000e-05
 Reference value :  3.40000e-05
 Reference value :  3.40000e-05
 Reference value :  3.40001e-05
 Reference value :  3.40001e-05
 Reference value :  3.40004e-05
 Reference value :  3.40012e-05
 Reference value :  3.40020e-05
 Reference value :  3.40029e-05
 Reference value :  3.40040e-05
 Reference value :  3.40049e-05
 Reference value :  3.40074e-05
 Reference value :  3.40224e-05
 Reference value :  3.40262e-05
 Reference value :  3.40291e-05
 Reference value :  3.40341e-05
 Reference value :  3.40389e-05
 Reference value :  3.40513e-05
 Reference value :  3.40733e-05
 Reference value :  3.40872e-05
 Reference value :  3.40987e-05
 Reference value :  3.41081e-05
 Reference value :  3.41188e-05
 Reference value :  3.41750e-05
 Reference value :  3.42501e-05
 Reference value :  3.42502e-05
 Reference value :  3.42504e-05
 Reference value :  3.42514e-05
 Reference value :  3.42530e-05
 Reference value :  3.42539e-05
 Reference value :  3.42559e-05
 Reference value :  3.42648e-05
 Reference value :  3.43648e-05
 Reference value :  3.45000e-05
 Reference value :  3.45001e-05
 Reference value :  3.45003e-05
 Reference value :  3.45008e-05
 Reference value :  3.45015e-05
 Reference value :  3.45028e-05
 Reference value :  3.45046e-05
 Reference value :  3.45064e-05
 Reference value :  3.45088e-05
 Reference value :  3.45112e-05
 Reference value :  3.45137e-05
 Reference value :  3.45172e-05
 Reference value :  3.45333e-05
 Reference value :  3.45786e-05
 Reference value :  3.47501e-05
 Reference value :  3.47502e-05
 Reference value :  3.47502e-05
 Reference value :  3.47504e-05
 Reference value :  3.47514e-05
 Reference value :  3.47530e-05
 Reference value :  3.47540e-05
 Reference value :  3.47550e-05
 Reference value :  3.47566e-05
 Reference value :  3.47596e-05
 Reference value :  3.47728e-05
 Reference value :  3.49268e-05
 Reference value :  3.50000e-05
 Reference value :  3.50001e-05
 Reference value :  3.50005e-05
 Reference value :  3.50016e-05
 Reference value :  3.50029e-05
 Reference value :  3.50039e-05
 Reference value :  3.50048e-05
 Reference value :  3.50066e-05
 Reference value :  3.50084e-05
 Reference value :  3.50102e-05
 Reference value :  3.50119e-05
 Reference value :  3.50136e-05
 Reference value :  3.50164e-05
 Reference value :  3.50211e-05
 Reference value :  3.51081e-05
 Reference value :  3.52501e-05
 Reference value :  3.52502e-05
 Reference value :  3.52503e-05
 Reference value :  3.52514e-05
 Reference value :  3.52530e-05
 Reference value :  3.52540e-05
 Reference value :  3.52560e-05
 Reference value :  3.52654e-05
 Reference value :  3.55000e-05
 Reference value :  3.55001e-05
 Reference value :  3.55002e-05
 Reference value :  3.55005e-05
 Reference value :  3.55012e-05
 Reference value :  3.55019e-05
 Reference value :  3.55028e-05
 Reference value :  3.55046e-05
 Reference value :  3.55060e-05
 Reference value :  3.55075e-05
 Reference value :  3.55103e-05
 Reference value :  3.55221e-05
 Reference value :  3.57501e-05
 Reference value :  3.57502e-05
 Reference value :  3.57504e-05
 Reference value :  3.57514e-05
 Reference value :  3.57534e-05
 Reference value :  3.57550e-05
 Reference value :  3.57566e-05
 Reference value :  3.57610e-05
 Reference value :  3.58192e-05
 Reference value :  3.60000e-05
 Reference value :  3.60001e-05
 Reference value :  3.60001e-05
 Reference value :  3.60002e-05
 Reference value :  3.60009e-05
 Reference value :  3.60016e-05
 Reference value :  3.60024e-05
 Reference value :  3.60034e-05
 Reference value :  3.60044e-05
 Reference value :  3.60053e-05
 Reference value :  3.60076e-05
 Reference value :  3.60093e-05
 Reference value :  3.60101e-05
 Reference value :  3.60119e-05
 Reference value :  3.60136e-05
 Reference value :  3.60164e-05
 Reference value :  3.60245e-05
 Reference value :  3.60893e-05
 Reference value :  3.62501e-05
 Reference value :  3.62502e-05
 Reference value :  3.62502e-05
 Reference value :  3.62507e-05
 Reference value :  3.62514e-05
 Reference value :  3.62530e-05
 Reference value :  3.62540e-05
 Reference value :  3.62560e-05
 Reference value :  3.62618e-05
 Reference value :  3.63168e-05
 Reference value :  3.65000e-05
 Reference value :  3.65001e-05
 Reference value :  3.65002e-05
 Reference value :  3.65005e-05
 Reference value :  3.65012e-05
 Reference value :  3.65019e-05
 Reference value :  3.65028e-05
 Reference value :  3.65039e-05
 Reference value :  3.65054e-05
 Reference value :  3.65060e-05
 Reference value :  3.65075e-05
 Reference value :  3.65092e-05
 Reference value :  3.65103e-05
 Reference value :  3.65167e-05
 Reference value :  3.65315e-05
 Reference value :  3.66423e-05
 Reference value :  3.67501e-05
 Reference value :  3.67502e-05
 Reference value :  3.67503e-05
 Reference value :  3.67507e-05
 Reference value :  3.67514e-05
 Reference value :  3.67523e-05
 Reference value :  3.67534e-05
 Reference value :  3.67545e-05
 Reference value :  3.67566e-05
 Reference value :  3.67596e-05
 Reference value :  3.67747e-05
 Reference value :  3.69968e-05
 Reference value :  3.70000e-05
 Reference value :  3.70001e-05
 Reference value :  3.70003e-05
 Reference value :  3.70008e-05
 Reference value :  3.70016e-05
 Reference value :  3.70024e-05
 Reference value :  3.70034e-05
 Reference value :  3.70044e-05
 Reference value :  3.70053e-05
 Reference value :  3.70076e-05
 Reference value :  3.70093e-05
 Reference value :  3.70102e-05
 Reference value :  3.70119e-05
 Reference value :  3.70145e-05
 Reference value :  3.70177e-05
 Reference value :  3.70305e-05
 Reference value :  3.70740e-05
 Reference value :  3.70853e-05
 Reference value :  3.70917e-05
 Reference value :  3.71025e-05
 Reference value :  3.71377e-05
 Reference value :  3.71828e-05
 Reference value :  3.72501e-05
 Reference value :  3.72502e-05
 Reference value :  3.72503e-05
 Reference value :  3.72507e-05
 Reference value :  3.72514e-05
 Reference value :  3.72530e-05
 Reference value :  3.72540e-05
 Reference value :  3.72560e-05
 Reference value :  3.72724e-05
 Reference value :  3.75000e-05
 Reference value :  3.75001e-05
 Reference value :  3.75002e-05
 Reference value :  3.75008e-05
 Reference value :  3.75016e-05
 Reference value :  3.75029e-05
 Reference value :  3.75040e-05
 Reference value :  3.75055e-05
 Reference value :  3.75062e-05
 Reference value :  3.75077e-05
 Reference value :  3.75109e-05
 Reference value :  3.75205e-05
 Reference value :  3.75829e-05
 Reference value :  3.77501e-05
 Reference value :  3.77502e-05
 Reference value :  3.77502e-05
 Reference value :  3.77504e-05
 Reference value :  3.77510e-05
 Reference value :  3.77514e-05
 Reference value :  3.77523e-05
 Reference value :  3.77534e-05
 Reference value :  3.77545e-05
 Reference value :  3.77558e-05
 Reference value :  3.77603e-05
 Reference value :  3.78070e-05
 Reference value :  3.80000e-05
 Reference value :  3.80001e-05
 Reference value :  3.80002e-05
 Reference value :  3.80003e-05
 Reference value :  3.80008e-05
 Reference value :  3.80016e-05
 Reference value :  3.80029e-05
 Reference value :  3.80040e-05
 Reference value :  3.80050e-05
 Reference value :  3.80063e-05
 Reference value :  3.80085e-05
 Reference value :  3.80112e-05
 Reference value :  3.80132e-05
 Reference value :  3.80152e-05
 Reference value :  3.80174e-05
 Reference value :  3.80240e-05
 Reference value :  3.80454e-05
 Reference value :  3.80637e-05
 Reference value :  3.80767e-05
 Reference value :  3.80905e-05
 Reference value :  3.81210e-05
 Reference value :  3.82225e-05
 Reference value :  3.82501e-05
 Reference value :  3.82502e-05
 Reference value :  3.82503e-05
 Reference value :  3.82510e-05
 Reference value :  3.82519e-05
 Reference value :  3.82530e-05
 Reference value :  3.82539e-05
 Reference value :  3.82553e-05
 Reference value :  3.82588e-05
 Reference value :  3.82719e-05
 Reference value :  3.83689e-05
 Reference value :  3.85004e-05
 Reference value :  3.85014e-05
 Reference value :  3.85023e-05
 Reference value :  3.85033e-05
 Reference value :  3.85046e-05
 Reference value :  3.85060e-05
 Reference value :  3.85075e-05
 Reference value :  3.85092e-05
 Reference value :  3.85102e-05
 Reference value :  3.85135e-05
 Reference value :  3.85318e-05
 Reference value :  3.86710e-05
 Reference value :  3.87501e-05
 Reference value :  3.87502e-05
 Reference value :  3.87503e-05
 Reference value :  3.87507e-05
 Reference value :  3.87514e-05
 Reference value :  3.87523e-05
 Reference value :  3.87530e-05
 Reference value :  3.87534e-05
 Reference value :  3.87545e-05
 Reference value :  3.87558e-05
 Reference value :  3.87575e-05
 Reference value :  3.87596e-05
 Reference value :  3.87636e-05
 Reference value :  3.87896e-05
 Reference value :  3.88786e-05
 Reference value :  3.90000e-05
 Reference value :  3.90001e-05
 Reference value :  3.90001e-05
 Reference value :  3.90002e-05
 Reference value :  3.90005e-05
 Reference value :  3.90012e-05
 Reference value :  3.90016e-05
 Reference value :  3.90024e-05
 Reference value :  3.90029e-05
 Reference value :  3.90039e-05
 Reference value :  3.90048e-05
 Reference value :  3.90066e-05
 Reference value :  3.90076e-05
 Reference value :  3.90084e-05
 Reference value :  3.90093e-05
 Reference value :  3.90102e-05
 Reference value :  3.90119e-05
 Reference value :  3.90136e-05
 Reference value :  3.90154e-05
 Reference value :  3.90176e-05
 Reference value :  3.90212e-05
 Reference value :  3.90294e-05
 Reference value :  3.90399e-05
 Reference value :  3.90499e-05
 Reference value :  3.90575e-05
 Reference value :  3.90778e-05
 Reference value :  3.91413e-05
 Reference value :  3.92501e-05
 Reference value :  3.92501e-05
 Reference value :  3.92502e-05
 Reference value :  3.92503e-05
 Reference value :  3.92507e-05
 Reference value :  3.92514e-05
 Reference value :  3.92530e-05
 Reference value :  3.92535e-05
 Reference value :  3.92546e-05
 Reference value :  3.92574e-05
 Reference value :  3.92724e-05
 Reference value :  3.95000e-05
 Reference value :  3.95001e-05
 Reference value :  3.95001e-05
 Reference value :  3.95003e-05
 Reference value :  3.95008e-05
 Reference value :  3.95016e-05
 Reference value :  3.95024e-05
 Reference value :  3.95034e-05
 Reference value :  3.95047e-05
 Reference value :  3.95062e-05
 Reference value :  3.95077e-05
 Reference value :  3.95096e-05
 Reference value :  3.95155e-05
 Reference value :  3.95826e-05
 Reference value :  3.97501e-05
 Reference value :  3.97502e-05
 Reference value :  3.97503e-05
 Reference value :  3.97510e-05
 Reference value :  3.97523e-05
 Reference value :  3.97534e-05
 Reference value :  3.97545e-05
 Reference value :  3.97558e-05
 Reference value :  3.97636e-05
 Reference value :  3.99555e-05
 Reference value :  4.00000e-05
 Reference value :  4.00001e-05
 Reference value :  4.00003e-05
 Reference value :  4.00012e-05
 Reference value :  4.00020e-05
 Reference value :  4.00029e-05
 Reference value :  4.00045e-05
 Reference value :  4.00055e-05
 Reference value :  4.00085e-05
 Reference value :  4.00112e-05
 Reference value :  4.00132e-05
 Reference value :  4.00152e-05
 Reference value :  4.00191e-05
 Reference value :  4.00365e-05
 Reference value :  4.00706e-05
 Reference value :  4.00842e-05
 Reference value :  4.01025e-05
 Reference value :  4.01466e-05
 Reference value :  4.02474e-05
 Reference value :  4.02501e-05
 Reference value :  4.02502e-05
 Reference value :  4.02504e-05
 Reference value :  4.02514e-05
 Reference value :  4.02523e-05
 Reference value :  4.02534e-05
 Reference value :  4.02546e-05
 Reference value :  4.02573e-05
 Reference value :  4.02719e-05
 Reference value :  4.04795e-05
 Reference value :  4.05001e-05
 Reference value :  4.05002e-05
 Reference value :  4.05005e-05
 Reference value :  4.05015e-05
 Reference value :  4.05028e-05
 Reference value :  4.05046e-05
 Reference value :  4.05060e-05
 Reference value :  4.05075e-05
 Reference value :  4.05103e-05
 Reference value :  4.05316e-05
 Reference value :  4.07501e-05
 Reference value :  4.07502e-05
 Reference value :  4.07503e-05
 Reference value :  4.07507e-05
 Reference value :  4.07514e-05
 Reference value :  4.07530e-05
 Reference value :  4.07540e-05
 Reference value :  4.07550e-05
 Reference value :  4.07575e-05
 Reference value :  4.07610e-05
 Reference value :  4.07898e-05
 Reference value :  4.10000e-05
 Reference value :  4.10000e-05
 Reference value :  4.10001e-05
 Reference value :  4.10005e-05
 Reference value :  4.10016e-05
 Reference value :  4.10029e-05
 Reference value :  4.10039e-05
 Reference value :  4.10048e-05
 Reference value :  4.10066e-05
 Reference value :  4.10084e-05
 Reference value :  4.10102e-05
 Reference value :  4.10119e-05
 Reference value :  4.10144e-05
 Reference value :  4.10176e-05
 Reference value :  4.10334e-05
 Reference value :  4.11327e-05
 Reference value :  4.12501e-05
 Reference value :  4.12502e-05
 Reference value :  4.12504e-05
 Reference value :  4.12510e-05
 Reference value :  4.12519e-05
 Reference value :  4.12530e-05
 Reference value :  4.12540e-05
 Reference value :  4.12553e-05
 Reference value :  4.12589e-05
 Reference value :  4.12871e-05
 Reference value :  4.13535e-05
 Reference value :  4.13929e-05
 Reference value :  4.14207e-05
 Reference value :  4.15000e-05
 Reference value :  4.15001e-05
 Reference value :  4.15002e-05
 Reference value :  4.15008e-05
 Reference value :  4.15016e-05
 Reference value :  4.15029e-05
 Reference value :  4.15047e-05
 Reference value :  4.15061e-05
 Reference value :  4.15077e-05
 Reference value :  4.15095e-05
 Reference value :  4.15153e-05
 Reference value :  4.15427e-05
 Reference value :  4.16315e-05
 Reference value :  4.17501e-05
 Reference value :  4.17502e-05
 Reference value :  4.17502e-05
 Reference value :  4.17507e-05
 Reference value :  4.17514e-05
 Reference value :  4.17523e-05
 Reference value :  4.17534e-05
 Reference value :  4.17545e-05
 Reference value :  4.17558e-05
 Reference value :  4.17603e-05
 Reference value :  4.17823e-05
 Reference value :  4.19569e-05
 Reference value :  4.20000e-05
 Reference value :  4.20001e-05
 Reference value :  4.20002e-05
 Reference value :  4.20005e-05
 Reference value :  4.20012e-05
 Reference value :  4.20020e-05
 Reference value :  4.20029e-05
 Reference value :  4.20040e-05
 Reference value :  4.20050e-05
 Reference value :  4.20064e-05
 Reference value :  4.20079e-05
 Reference value :  4.20098e-05
 Reference value :  4.20366e-05
 Reference value :  4.22501e-05
 Reference value :  4.22502e-05
 Reference value :  4.22503e-05
 Reference value :  4.22507e-05
 Reference value :  4.22514e-05
 Reference value :  4.22530e-05
 Reference value :  4.22553e-05
 Reference value :  4.22592e-05
 Reference value :  4.22914e-05
 Reference value :  4.25000e-05
 Reference value :  4.25000e-05
 Reference value :  4.25000e-05
 Reference value :  4.25001e-05
 Reference value :  4.25002e-05
 Reference value :  4.25007e-05
 Reference value :  4.25020e-05
 Reference value :  4.25029e-05
 Reference value :  4.25040e-05
 Reference value :  4.25045e-05
 Reference value :  4.25055e-05
 Reference value :  4.25090e-05
 Reference value :  4.25224e-05
 Reference value :  4.25262e-05
 Reference value :  4.25291e-05
 Reference value :  4.25315e-05
 Reference value :  4.25348e-05
 Reference value :  4.25366e-05
 Reference value :  4.25414e-05
 Reference value :  4.25484e-05
 Reference value :  4.25688e-05
 Reference value :  4.25814e-05
 Reference value :  4.25975e-05
 Reference value :  4.26130e-05
 Reference value :  4.26617e-05
 Reference value :  4.27501e-05
 Reference value :  4.27502e-05
 Reference value :  4.27503e-05
 Reference value :  4.27510e-05
 Reference value :  4.27519e-05
 Reference value :  4.27530e-05
 Reference value :  4.27539e-05
 Reference value :  4.27559e-05
 Reference value :  4.27614e-05
 Reference value :  4.28115e-05
 Reference value :  4.30000e-05
 Reference value :  4.30001e-05
 Reference value :  4.30002e-05
 Reference value :  4.30005e-05
 Reference value :  4.30012e-05
 Reference value :  4.30015e-05
 Reference value :  4.30023e-05
 Reference value :  4.30028e-05
 Reference value :  4.30039e-05
 Reference value :  4.30064e-05
 Reference value :  4.30088e-05
 Reference value :  4.30112e-05
 Reference value :  4.30137e-05
 Reference value :  4.30172e-05
 Reference value :  4.30487e-05
 Reference value :  4.32501e-05
 Reference value :  4.32501e-05
 Reference value :  4.32502e-05
 Reference value :  4.32503e-05
 Reference value :  4.32507e-05
 Reference value :  4.32514e-05
 Reference value :  4.32530e-05
 Reference value :  4.32540e-05
 Reference value :  4.32550e-05
 Reference value :  4.32566e-05
 Reference value :  4.32596e-05
 Reference value :  4.32729e-05
 Reference value :  4.34325e-05
 Reference value :  4.35011e-05
 Reference value :  4.35046e-05
 Reference value :  4.35066e-05
 Reference value :  4.35093e-05
 Reference value :  4.35112e-05
 Reference value :  4.35132e-05
 Reference value :  4.35150e-05
 Reference value :  4.35183e-05
 Reference value :  4.35354e-05
 Reference value :  4.36201e-05
 Reference value :  4.37501e-05
 Reference value :  4.37502e-05
 Reference value :  4.37503e-05
 Reference value :  4.37507e-05
 Reference value :  4.37514e-05
 Reference value :  4.37519e-05
 Reference value :  4.37529e-05
 Reference value :  4.37533e-05
 Reference value :  4.37544e-05
 Reference value :  4.37568e-05
 Reference value :  4.37632e-05
 Reference value :  4.38040e-05
 Reference value :  4.40000e-05
 Reference value :  4.40001e-05
 Reference value :  4.40001e-05
 Reference value :  4.40002e-05
 Reference value :  4.40005e-05
 Reference value :  4.40012e-05
 Reference value :  4.40015e-05
 Reference value :  4.40023e-05
 Reference value :  4.40028e-05
 Reference value :  4.40039e-05
 Reference value :  4.40054e-05
 Reference value :  4.40060e-05
 Reference value :  4.40075e-05
 Reference value :  4.40103e-05
 Reference value :  4.40167e-05
 Reference value :  4.40792e-05
 Reference value :  4.42501e-05
 Reference value :  4.42502e-05
 Reference value :  4.42503e-05
 Reference value :  4.42507e-05
 Reference value :  4.42514e-05
 Reference value :  4.42523e-05
 Reference value :  4.42534e-05
 Reference value :  4.42545e-05
 Reference value :  4.42558e-05
 Reference value :  4.42575e-05
 Reference value :  4.42596e-05
 Reference value :  4.42672e-05
 Reference value :  4.43181e-05
 Reference value :  4.45000e-05
 Reference value :  4.45001e-05
 Reference value :  4.45001e-05
 Reference value :  4.45003e-05
 Reference value :  4.45008e-05
 Reference value :  4.45016e-05
 Reference value :  4.45024e-05
 Reference value :  4.45034e-05
 Reference value :  4.45044e-05
 Reference value :  4.45053e-05
 Reference value :  4.45066e-05
 Reference value :  4.45084e-05
 Reference value :  4.45102e-05
 Reference value :  4.45119e-05
 Reference value :  4.45136e-05
 Reference value :  4.45164e-05
 Reference value :  4.45246e-05
 Reference value :  4.46400e-05
 Reference value :  4.47501e-05
 Reference value :  4.47502e-05
 Reference value :  4.47503e-05
 Reference value :  4.47510e-05
 Reference value :  4.47519e-05
 Reference value :  4.47534e-05
 Reference value :  4.47553e-05
 Reference value :  4.47590e-05
 Reference value :  4.47728e-05
 Reference value :  4.49848e-05
 Reference value :  4.50000e-05
 Reference value :  4.50001e-05
 Reference value :  4.50002e-05
 Reference value :  4.50008e-05
 Reference value :  4.50015e-05
 Reference value :  4.50023e-05
 Reference value :  4.50033e-05
 Reference value :  4.50046e-05
 Reference value :  4.50060e-05
 Reference value :  4.50075e-05
 Reference value :  4.50092e-05
 Reference value :  4.50103e-05
 Reference value :  4.50167e-05
 Reference value :  4.50474e-05
 Reference value :  4.51422e-05
 Reference value :  4.52501e-05
 Reference value :  4.52502e-05
 Reference value :  4.52503e-05
 Reference value :  4.52504e-05
 Reference value :  4.52510e-05
 Reference value :  4.52514e-05
 Reference value :  4.52523e-05
 Reference value :  4.52534e-05
 Reference value :  4.52545e-05
[...]
 Reference value :  1.66270e-04
 Reference value :  1.66457e-04
 Reference value :  1.66500e-04
 Reference value :  1.66500e-04
 Reference value :  1.66501e-04
 Reference value :  1.66502e-04
 Reference value :  1.66503e-04
 Reference value :  1.66504e-04
 Reference value :  1.66506e-04
 Reference value :  1.66510e-04
 Reference value :  1.66512e-04
 Reference value :  1.66515e-04
 Reference value :  1.66524e-04
 Reference value :  1.66546e-04
 Reference value :  1.66563e-04
 Reference value :  1.66590e-04
 Reference value :  1.66750e-04
 Reference value :  1.66750e-04
 Reference value :  1.66750e-04
 Reference value :  1.66752e-04
 Reference value :  1.66753e-04
 Reference value :  1.66757e-04
 Reference value :  1.66813e-04
 Reference value :  1.67000e-04
 Reference value :  1.67000e-04
 Reference value :  1.67001e-04
 Reference value :  1.67002e-04
 Reference value :  1.67003e-04
 Reference value :  1.67005e-04
 Reference value :  1.67007e-04
 Reference value :  1.67010e-04
 Reference value :  1.67079e-04
 Reference value :  1.67250e-04
 Reference value :  1.67250e-04
 Reference value :  1.67251e-04
 Reference value :  1.67253e-04
 Reference value :  1.67254e-04
 Reference value :  1.67255e-04
 Reference value :  1.67257e-04
 Reference value :  1.67260e-04
 Reference value :  1.67290e-04
 Reference value :  1.67500e-04
 Reference value :  1.67500e-04
 Reference value :  1.67500e-04
 Reference value :  1.67501e-04
 Reference value :  1.67502e-04
 Reference value :  1.67503e-04
 Reference value :  1.67504e-04
 Reference value :  1.67505e-04
 Reference value :  1.67507e-04
 Reference value :  1.67509e-04
 Reference value :  1.67510e-04
 Reference value :  1.67512e-04
 Reference value :  1.67513e-04
 Reference value :  1.67516e-04
 Reference value :  1.67524e-04
 Reference value :  1.67541e-04
 Reference value :  1.67702e-04
 Reference value :  1.67750e-04
 Reference value :  1.67750e-04
 Reference value :  1.67751e-04
 Reference value :  1.67752e-04
 Reference value :  1.67753e-04
 Reference value :  1.67755e-04
 Reference value :  1.67759e-04
 Reference value :  1.67787e-04
 Reference value :  1.68000e-04
 Reference value :  1.68000e-04
 Reference value :  1.68000e-04
 Reference value :  1.68001e-04
 Reference value :  1.68002e-04
 Reference value :  1.68003e-04
 Reference value :  1.68004e-04
 Reference value :  1.68005e-04
 Reference value :  1.68006e-04
 Reference value :  1.68007e-04
 Reference value :  1.68009e-04
 Reference value :  1.68010e-04
 Reference value :  1.68014e-04
 Reference value :  1.68022e-04
 Reference value :  1.68047e-04
 Reference value :  1.68142e-04
 Reference value :  1.68250e-04
 Reference value :  1.68250e-04
 Reference value :  1.68250e-04
 Reference value :  1.68250e-04
 Reference value :  1.68251e-04
 Reference value :  1.68251e-04
 Reference value :  1.68252e-04
 Reference value :  1.68253e-04
 Reference value :  1.68253e-04
 Reference value :  1.68254e-04
 Reference value :  1.68256e-04
 Reference value :  1.68257e-04
 Reference value :  1.68260e-04
 Reference value :  1.68267e-04
 Reference value :  1.68289e-04
 Reference value :  1.68496e-04
 Reference value :  1.68500e-04
 Reference value :  1.68500e-04
 Reference value :  1.68500e-04
 Reference value :  1.68501e-04
 Reference value :  1.68502e-04
 Reference value :  1.68502e-04
 Reference value :  1.68503e-04
 Reference value :  1.68504e-04
 Reference value :  1.68505e-04
 Reference value :  1.68508e-04
 Reference value :  1.68509e-04
 Reference value :  1.68510e-04
 Reference value :  1.68512e-04
 Reference value :  1.68514e-04
 Reference value :  1.68517e-04
 Reference value :  1.68521e-04
 Reference value :  1.68533e-04
 Reference value :  1.68651e-04
 Reference value :  1.68750e-04
 Reference value :  1.68750e-04
 Reference value :  1.68750e-04
 Reference value :  1.68750e-04
 Reference value :  1.68751e-04
 Reference value :  1.68751e-04
 Reference value :  1.68752e-04
 Reference value :  1.68753e-04
 Reference value :  1.68755e-04
 Reference value :  1.68757e-04
 Reference value :  1.68773e-04
 Reference value :  1.68875e-04
 Reference value :  1.69000e-04
 Reference value :  1.69000e-04
 Reference value :  1.69000e-04
 Reference value :  1.69001e-04
 Reference value :  1.69002e-04
 Reference value :  1.69003e-04
 Reference value :  1.69005e-04
 Reference value :  1.69006e-04
 Reference value :  1.69007e-04
 Reference value :  1.69010e-04
 Reference value :  1.69022e-04
 Reference value :  1.69142e-04
 Reference value :  1.69250e-04
 Reference value :  1.69250e-04
 Reference value :  1.69251e-04
 Reference value :  1.69252e-04
 Reference value :  1.69253e-04
 Reference value :  1.69254e-04
 Reference value :  1.69256e-04
 Reference value :  1.69258e-04
 Reference value :  1.69261e-04
 Reference value :  1.69289e-04
 Reference value :  1.69500e-04
 Reference value :  1.69500e-04
 Reference value :  1.69500e-04
 Reference value :  1.69501e-04
 Reference value :  1.69502e-04
 Reference value :  1.69503e-04
 Reference value :  1.69504e-04
 Reference value :  1.69505e-04
 Reference value :  1.69507e-04
 Reference value :  1.69509e-04
 Reference value :  1.69513e-04
 Reference value :  1.69515e-04
 Reference value :  1.69522e-04
 Reference value :  1.69531e-04
 Reference value :  1.69534e-04
 Reference value :  1.69542e-04
 Reference value :  1.69554e-04
 Reference value :  1.69605e-04
 Reference value :  1.69750e-04
 Reference value :  1.69750e-04
 Reference value :  1.69750e-04
 Reference value :  1.69750e-04
 Reference value :  1.69751e-04
 Reference value :  1.69753e-04
 Reference value :  1.69755e-04
 Reference value :  1.69759e-04
 Reference value :  1.69775e-04
 Reference value :  1.69882e-04
 Reference value :  1.70000e-04
 Reference value :  1.70000e-04
 Reference value :  1.70000e-04
 Reference value :  1.70000e-04
 Reference value :  1.70000e-04
 Reference value :  1.70000e-04
 Reference value :  1.70000e-04
 Reference value :  1.70001e-04
 Reference value :  1.70002e-04
 Reference value :  1.70003e-04
 Reference value :  1.70004e-04
 Reference value :  1.70004e-04
 Reference value :  1.70006e-04
 Reference value :  1.70007e-04
 Reference value :  1.70017e-04
 Reference value :  1.70022e-04
 Reference value :  1.70026e-04
 Reference value :  1.70032e-04
 Reference value :  1.70036e-04
 Reference value :  1.70047e-04
 Reference value :  1.70076e-04
 Reference value :  1.70104e-04
 Reference value :  1.70120e-04
 Reference value :  1.70129e-04
 Reference value :  1.70147e-04
 Reference value :  1.70187e-04
 Reference value :  1.70250e-04
 Reference value :  1.70250e-04
 Reference value :  1.70251e-04
 Reference value :  1.70251e-04
 Reference value :  1.70252e-04
 Reference value :  1.70253e-04
 Reference value :  1.70255e-04
 Reference value :  1.70261e-04
 Reference value :  1.70311e-04
 Reference value :  1.70500e-04
 Reference value :  1.70500e-04
 Reference value :  1.70500e-04
 Reference value :  1.70501e-04
 Reference value :  1.70501e-04
 Reference value :  1.70502e-04
 Reference value :  1.70503e-04
 Reference value :  1.70504e-04
 Reference value :  1.70506e-04
 Reference value :  1.70509e-04
 Reference value :  1.70511e-04
 Reference value :  1.70512e-04
 Reference value :  1.70515e-04
 Reference value :  1.70525e-04
 Reference value :  1.70579e-04
 Reference value :  1.70750e-04
 Reference value :  1.70750e-04
 Reference value :  1.70750e-04
 Reference value :  1.70751e-04
 Reference value :  1.70753e-04
 Reference value :  1.70754e-04
 Reference value :  1.70756e-04
 Reference value :  1.70760e-04
 Reference value :  1.70783e-04
 Reference value :  1.71000e-04
 Reference value :  1.71000e-04
 Reference value :  1.71000e-04
 Reference value :  1.71001e-04
 Reference value :  1.71002e-04
 Reference value :  1.71003e-04
 Reference value :  1.71005e-04
 Reference value :  1.71008e-04
 Reference value :  1.71009e-04
 Reference value :  1.71011e-04
 Reference value :  1.71014e-04
 Reference value :  1.71016e-04
 Reference value :  1.71032e-04
 Reference value :  1.71231e-04
 Reference value :  1.71250e-04
 Reference value :  1.71250e-04
 Reference value :  1.71251e-04
 Reference value :  1.71251e-04
 Reference value :  1.71253e-04
 Reference value :  1.71254e-04
 Reference value :  1.71256e-04
 Reference value :  1.71265e-04
 Reference value :  1.71376e-04
 Reference value :  1.71500e-04
 Reference value :  1.71500e-04
 Reference value :  1.71500e-04
 Reference value :  1.71501e-04
 Reference value :  1.71502e-04
 Reference value :  1.71503e-04
 Reference value :  1.71505e-04
 Reference value :  1.71506e-04
 Reference value :  1.71507e-04
 Reference value :  1.71510e-04
 Reference value :  1.71532e-04
 Reference value :  1.71750e-04
 Reference value :  1.71750e-04
 Reference value :  1.71750e-04
 Reference value :  1.71751e-04
 Reference value :  1.71753e-04
 Reference value :  1.71754e-04
 Reference value :  1.71755e-04
 Reference value :  1.71757e-04
 Reference value :  1.71760e-04
 Reference value :  1.71775e-04
 Reference value :  1.71997e-04
 Reference value :  1.72000e-04
 Reference value :  1.72000e-04
 Reference value :  1.72000e-04
 Reference value :  1.72001e-04
 Reference value :  1.72002e-04
 Reference value :  1.72003e-04
 Reference value :  1.72004e-04
 Reference value :  1.72005e-04
 Reference value :  1.72007e-04
 Reference value :  1.72008e-04
 Reference value :  1.72010e-04
 Reference value :  1.72012e-04
 Reference value :  1.72014e-04
 Reference value :  1.72016e-04
 Reference value :  1.72021e-04
 Reference value :  1.72064e-04
 Reference value :  1.72209e-04
 Reference value :  1.72250e-04
 Reference value :  1.72250e-04
 Reference value :  1.72251e-04
 Reference value :  1.72251e-04
 Reference value :  1.72253e-04
 Reference value :  1.72254e-04
 Reference value :  1.72256e-04
 Reference value :  1.72265e-04
 Reference value :  1.72376e-04
 Reference value :  1.72500e-04
 Reference value :  1.72500e-04
 Reference value :  1.72500e-04
 Reference value :  1.72501e-04
 Reference value :  1.72502e-04
 Reference value :  1.72502e-04
 Reference value :  1.72503e-04
 Reference value :  1.72505e-04
 Reference value :  1.72506e-04
 Reference value :  1.72507e-04
 Reference value :  1.72510e-04
 Reference value :  1.72517e-04
 Reference value :  1.72579e-04
 Reference value :  1.72750e-04
 Reference value :  1.72750e-04
 Reference value :  1.72750e-04
 Reference value :  1.72751e-04
 Reference value :  1.72752e-04
 Reference value :  1.72753e-04
 Reference value :  1.72754e-04
 Reference value :  1.72755e-04
 Reference value :  1.72757e-04
 Reference value :  1.72758e-04
 Reference value :  1.72764e-04
 Reference value :  1.72819e-04
 Reference value :  1.73000e-04
 Reference value :  1.73000e-04
 Reference value :  1.73000e-04
 Reference value :  1.73000e-04
 Reference value :  1.73001e-04
 Reference value :  1.73002e-04
 Reference value :  1.73002e-04
 Reference value :  1.73003e-04
 Reference value :  1.73004e-04
 Reference value :  1.73005e-04
 Reference value :  1.73006e-04
 Reference value :  1.73008e-04
 Reference value :  1.73008e-04
 Reference value :  1.73010e-04
 Reference value :  1.73012e-04
 Reference value :  1.73014e-04
 Reference value :  1.73015e-04
 Reference value :  1.73018e-04
 Reference value :  1.73025e-04
 Reference value :  1.73042e-04
 Reference value :  1.73050e-04
 Reference value :  1.73058e-04
 Reference value :  1.73061e-04
 Reference value :  1.73068e-04
 Reference value :  1.73092e-04
 Reference value :  1.73113e-04
 Reference value :  1.73169e-04
 Reference value :  1.73250e-04
 Reference value :  1.73250e-04
 Reference value :  1.73250e-04
 Reference value :  1.73250e-04
 Reference value :  1.73251e-04
 Reference value :  1.73253e-04
 Reference value :  1.73253e-04
 Reference value :  1.73255e-04
 Reference value :  1.73257e-04
 Reference value :  1.73265e-04
 Reference value :  1.73315e-04
 Reference value :  1.73500e-04
 Reference value :  1.73500e-04
 Reference value :  1.73501e-04
 Reference value :  1.73502e-04
 Reference value :  1.73503e-04
 Reference value :  1.73505e-04
 Reference value :  1.73506e-04
 Reference value :  1.73508e-04
 Reference value :  1.73510e-04
 Reference value :  1.73516e-04
 Reference value :  1.73547e-04
 Reference value :  1.73750e-04
 Reference value :  1.73750e-04
 Reference value :  1.73750e-04
 Reference value :  1.73751e-04
 Reference value :  1.73751e-04
 Reference value :  1.73752e-04
 Reference value :  1.73753e-04
 Reference value :  1.73754e-04
 Reference value :  1.73756e-04
 Reference value :  1.73764e-04
 Reference value :  1.73857e-04
 Reference value :  1.74000e-04
 Reference value :  1.74000e-04
 Reference value :  1.74000e-04
 Reference value :  1.74001e-04
 Reference value :  1.74001e-04
 Reference value :  1.74002e-04
 Reference value :  1.74003e-04
 Reference value :  1.74004e-04
 Reference value :  1.74005e-04
 Reference value :  1.74006e-04
 Reference value :  1.74010e-04
 Reference value :  1.74011e-04
 Reference value :  1.74013e-04
 Reference value :  1.74015e-04
 Reference value :  1.74017e-04
 Reference value :  1.74021e-04
 Reference value :  1.74029e-04
 Reference value :  1.74049e-04
 Reference value :  1.74064e-04
 Reference value :  1.74077e-04
 Reference value :  1.74087e-04
 Reference value :  1.74107e-04
 Reference value :  1.74134e-04
 Reference value :  1.74188e-04
 Reference value :  1.74205e-04
 Reference value :  1.74232e-04
 Reference value :  1.74250e-04
 Reference value :  1.74250e-04
 Reference value :  1.74250e-04
 Reference value :  1.74250e-04
 Reference value :  1.74250e-04
 Reference value :  1.74251e-04
 Reference value :  1.74251e-04
 Reference value :  1.74252e-04
 Reference value :  1.74253e-04
 Reference value :  1.74253e-04
 Reference value :  1.74255e-04
 Reference value :  1.74256e-04
 Reference value :  1.74259e-04
 Reference value :  1.74272e-04
 Reference value :  1.74372e-04
 Reference value :  1.74500e-04
 Reference value :  1.74500e-04
 Reference value :  1.74500e-04
 Reference value :  1.74500e-04
 Reference value :  1.74501e-04
 Reference value :  1.74501e-04
 Reference value :  1.74502e-04
 Reference value :  1.74502e-04
 Reference value :  1.74503e-04
 Reference value :  1.74503e-04
 Reference value :  1.74506e-04
 Reference value :  1.74506e-04
 Reference value :  1.74509e-04
 Reference value :  1.74520e-04
 Reference value :  1.74750e-04
 Reference value :  1.74750e-04
 Reference value :  1.74750e-04
 Reference value :  1.74751e-04
 Reference value :  1.74753e-04
 Reference value :  1.74754e-04
 Reference value :  1.74755e-04
 Reference value :  1.74758e-04
 Reference value :  1.74782e-04
 Reference value :  1.75000e-04
 Reference value :  1.75000e-04
 Reference value :  1.75000e-04
 Reference value :  1.75001e-04
 Reference value :  1.75002e-04
 Reference value :  1.75003e-04
 Reference value :  1.75005e-04
 Reference value :  1.75008e-04
 Reference value :  1.75011e-04
 Reference value :  1.75013e-04
 Reference value :  1.75015e-04
 Reference value :  1.75024e-04
 Reference value :  1.75046e-04
 Reference value :  1.75060e-04
 Reference value :  1.75078e-04
 Reference value :  1.75119e-04
 Reference value :  1.75250e-04
 Reference value :  1.75250e-04
 Reference value :  1.75250e-04
 Reference value :  1.75251e-04
 Reference value :  1.75253e-04
 Reference value :  1.75254e-04
 Reference value :  1.75256e-04
 Reference value :  1.75265e-04
 Reference value :  1.75313e-04
 Reference value :  1.75500e-04
 Reference value :  1.75500e-04
 Reference value :  1.75500e-04
 Reference value :  1.75501e-04
 Reference value :  1.75502e-04
 Reference value :  1.75502e-04
 Reference value :  1.75503e-04
 Reference value :  1.75505e-04
 Reference value :  1.75506e-04
 Reference value :  1.75507e-04
 Reference value :  1.75510e-04
 Reference value :  1.75532e-04
 Reference value :  1.75750e-04
 Reference value :  1.75750e-04
 Reference value :  1.75750e-04
 Reference value :  1.75751e-04
 Reference value :  1.75753e-04
 Reference value :  1.75754e-04
 Reference value :  1.75755e-04
 Reference value :  1.75757e-04
 Reference value :  1.75758e-04
 Reference value :  1.75761e-04
 Reference value :  1.75775e-04
 Reference value :  1.75879e-04
 Reference value :  1.76000e-04
 Reference value :  1.76000e-04
 Reference value :  1.76000e-04
 Reference value :  1.76001e-04
 Reference value :  1.76001e-04
 Reference value :  1.76002e-04
 Reference value :  1.76002e-04
 Reference value :  1.76003e-04
 Reference value :  1.76004e-04
 Reference value :  1.76005e-04
 Reference value :  1.76006e-04
 Reference value :  1.76008e-04
 Reference value :  1.76009e-04
 Reference value :  1.76010e-04
 Reference value :  1.76012e-04
 Reference value :  1.76013e-04
 Reference value :  1.76015e-04
 Reference value :  1.76019e-04
 Reference value :  1.76027e-04
 Reference value :  1.76041e-04
 Reference value :  1.76139e-04
 Reference value :  1.76250e-04
 Reference value :  1.76250e-04
 Reference value :  1.76250e-04
 Reference value :  1.76251e-04
 Reference value :  1.76251e-04
 Reference value :  1.76252e-04
 Reference value :  1.76253e-04
 Reference value :  1.76255e-04
 Reference value :  1.76257e-04
 Reference value :  1.76265e-04
 Reference value :  1.76317e-04
 Reference value :  1.76500e-04
 Reference value :  1.76500e-04
 Reference value :  1.76500e-04
 Reference value :  1.76500e-04
 Reference value :  1.76500e-04
 Reference value :  1.76501e-04
 Reference value :  1.76502e-04
 Reference value :  1.76502e-04
 Reference value :  1.76503e-04
 Reference value :  1.76504e-04
 Reference value :  1.76505e-04
 Reference value :  1.76506e-04
 Reference value :  1.76507e-04
 Reference value :  1.76509e-04
 Reference value :  1.76510e-04
 Reference value :  1.76522e-04
 Reference value :  1.76642e-04
 Reference value :  1.76750e-04
 Reference value :  1.76750e-04
 Reference value :  1.76750e-04
 Reference value :  1.76751e-04
 Reference value :  1.76751e-04
 Reference value :  1.76753e-04
 Reference value :  1.76753e-04
 Reference value :  1.76754e-04
 Reference value :  1.76756e-04
 Reference value :  1.76758e-04
 Reference value :  1.76761e-04
 Reference value :  1.76775e-04
 Reference value :  1.76996e-04
 Reference value :  1.77000e-04
 Reference value :  1.77000e-04
 Reference value :  1.77001e-04
 Reference value :  1.77002e-04
 Reference value :  1.77003e-04
 Reference value :  1.77004e-04
 Reference value :  1.77005e-04
 Reference value :  1.77008e-04
 Reference value :  1.77010e-04
 Reference value :  1.77012e-04
 Reference value :  1.77014e-04
 Reference value :  1.77019e-04
 Reference value :  1.77033e-04
 Reference value :  1.77087e-04
 Reference value :  1.77250e-04
 Reference value :  1.77250e-04
 Reference value :  1.77250e-04
 Reference value :  1.77251e-04
 Reference value :  1.77252e-04
 Reference value :  1.77253e-04
 Reference value :  1.77255e-04
 Reference value :  1.77262e-04
 Reference value :  1.77315e-04
 Reference value :  1.77343e-04
 Reference value :  1.77382e-04
 Reference value :  1.77497e-04
 Reference value :  1.77500e-04
 Reference value :  1.77500e-04
 Reference value :  1.77500e-04
 Reference value :  1.77501e-04
 Reference value :  1.77502e-04
 Reference value :  1.77503e-04
 Reference value :  1.77505e-04
 Reference value :  1.77506e-04
 Reference value :  1.77509e-04
 Reference value :  1.77520e-04
 Reference value :  1.77709e-04
 Reference value :  1.77750e-04
 Reference value :  1.77750e-04
 Reference value :  1.77752e-04
 Reference value :  1.77753e-04
 Reference value :  1.77756e-04
 Reference value :  1.77782e-04
 Reference value :  1.78000e-04
 Reference value :  1.78000e-04
 Reference value :  1.78002e-04
 Reference value :  1.78004e-04
 Reference value :  1.78006e-04
 Reference value :  1.78016e-04
 Reference value :  1.78250e-04
 Reference value :  1.78250e-04
 Reference value :  1.78251e-04
 Reference value :  1.78255e-04
 Reference value :  1.78259e-04
 Reference value :  1.78500e-04
No. of Data Rows : 26116
ngspice-44 done
