
Note: Compatibility modes selected: hs a


Circuit: ** sch_path: /home/audrey/cace/sar-adc-using-sky130-pdk/runs/run_2025-08-29_21-20-06/parameters/power/run_0/power_consumption.sch

option SCALE: Scale is set to 1e-06 for instance and model parameters
option SCALE: Scale is set to 1e-06 for instance and model parameters
option SCALE: Scale is set to 1e-06 for instance and model parameters
option SCALE: Scale is set to 1e-06 for instance and model parameters
Doing analysis at TEMP = 27.000000 and TNOM = 27.000000

Using KLU as Direct Linear Solver
Operating point simulation skipped by 'uic',
  now using transient initial conditions.
 Reference value :  5.00000e-12
 Reference value :  5.13172e-12
 Reference value :  5.39515e-12
 Reference value :  5.92202e-12
 Reference value :  6.97576e-12
 Reference value :  8.85115e-12
 Reference value :  1.18882e-11
 Reference value :  1.73388e-11
 Reference value :  2.79047e-11
 Reference value :  4.12351e-11
 Reference value :  6.52162e-11
 Reference value :  9.40585e-11
 Reference value :  1.45675e-10
 Reference value :  2.06193e-10
 Reference value :  3.27229e-10
 Reference value :  4.61346e-10
 Reference value :  5.00000e-10
 Reference value :  5.04576e-10
 Reference value :  5.13729e-10
 Reference value :  5.32033e-10
 Reference value :  5.68643e-10
 Reference value :  6.41862e-10
 Reference value :  7.88300e-10
 Reference value :  1.08118e-09
 Reference value :  1.66693e-09
 Reference value :  2.81454e-09
 Reference value :  4.00244e-09
 Reference value :  6.37823e-09
 Reference value :  1.05480e-08
 Reference value :  1.52516e-08
 Reference value :  2.46589e-08
 Reference value :  3.56649e-08
 Reference value :  5.34183e-08
 Reference value :  7.73667e-08
 Reference value :  1.25264e-07
 Reference value :  2.21057e-07
 Reference value :  4.12644e-07
 Reference value :  5.00000e-07
 Reference value :  5.38317e-07
 Reference value :  6.14952e-07
 Reference value :  7.68222e-07
 Reference value :  1.00050e-06
 Reference value :  1.00055e-06
 Reference value :  1.00065e-06
 Reference value :  1.00085e-06
 Reference value :  1.00100e-06
 Reference value :  1.00103e-06
 Reference value :  1.00110e-06
 Reference value :  1.00124e-06
 Reference value :  1.00151e-06
 Reference value :  1.00198e-06
 Reference value :  1.00253e-06
 Reference value :  1.00338e-06
 Reference value :  1.00465e-06
 Reference value :  1.00675e-06
 Reference value :  1.01061e-06
 Reference value :  1.01594e-06
 Reference value :  1.02399e-06
 Reference value :  1.03287e-06
 Reference value :  1.04256e-06
 Reference value :  1.05336e-06
 Reference value :  1.06517e-06
 Reference value :  1.07612e-06
 Reference value :  1.08488e-06
 Reference value :  1.09170e-06
 Reference value :  1.09757e-06
 Reference value :  1.10253e-06
 Reference value :  1.10784e-06
 Reference value :  1.11263e-06
 Reference value :  1.11670e-06
 Reference value :  1.12118e-06
 Reference value :  1.12521e-06
 Reference value :  1.12951e-06
 Reference value :  1.13380e-06
 Reference value :  1.13940e-06
 Reference value :  1.14465e-06
 Reference value :  1.15135e-06
 Reference value :  1.15925e-06
 Reference value :  1.16591e-06
 Reference value :  1.17290e-06
 Reference value :  1.18233e-06
 Reference value :  1.19287e-06
 Reference value :  1.20757e-06
 Reference value :  1.22659e-06
 Reference value :  1.24010e-06
 Reference value :  1.25358e-06
 Reference value :  1.26392e-06
 Reference value :  1.27552e-06
 Reference value :  1.28870e-06
 Reference value :  1.30262e-06
 Reference value :  1.31852e-06
 Reference value :  1.33496e-06
 Reference value :  1.36367e-06
 Reference value :  1.40023e-06
 Reference value :  1.43724e-06
 Reference value :  1.43921e-06
 Reference value :  1.44314e-06
 Reference value :  1.45100e-06
 Reference value :  1.46337e-06
 Reference value :  1.47541e-06
 Reference value :  1.48898e-06
 Reference value :  1.50427e-06
 Reference value :  1.52063e-06
 Reference value :  1.53752e-06
 Reference value :  1.55568e-06
 Reference value :  1.57100e-06
 Reference value :  1.58257e-06
 Reference value :  1.59405e-06
 Reference value :  1.60476e-06
 Reference value :  1.61638e-06
 Reference value :  1.63149e-06
 Reference value :  1.64925e-06
 Reference value :  1.67471e-06
 Reference value :  1.70944e-06
 Reference value :  1.74494e-06
 Reference value :  1.77002e-06
 Reference value :  1.79362e-06
 Reference value :  1.81503e-06
 Reference value :  1.83099e-06
 Reference value :  1.84622e-06
 Reference value :  1.86075e-06
 Reference value :  1.87582e-06
 Reference value :  1.89506e-06
 Reference value :  1.91619e-06
 Reference value :  1.94418e-06
 Reference value :  1.97964e-06
 Reference value :  2.00000e-06
 Reference value :  2.00005e-06
 Reference value :  2.00015e-06
 Reference value :  2.00035e-06
 Reference value :  2.00050e-06
 Reference value :  2.00051e-06
 Reference value :  2.00053e-06
 Reference value :  2.00058e-06
 Reference value :  2.00066e-06
 Reference value :  2.00084e-06
 Reference value :  2.00118e-06
 Reference value :  2.00188e-06
 Reference value :  2.00326e-06
 Reference value :  2.00519e-06
 Reference value :  2.00766e-06
 Reference value :  2.01180e-06
 Reference value :  2.01653e-06
 Reference value :  2.02190e-06
 Reference value :  2.03188e-06
 Reference value :  2.04684e-06
 Reference value :  2.07529e-06
 Reference value :  2.12988e-06
 Reference value :  2.23155e-06
 Reference value :  2.37290e-06
 Reference value :  2.52795e-06
 Reference value :  2.67086e-06
 Reference value :  2.77626e-06
 Reference value :  2.87533e-06
 Reference value :  2.98852e-06
 Reference value :  3.00050e-06
 Reference value :  3.00055e-06
 Reference value :  3.00065e-06
 Reference value :  3.00085e-06
 Reference value :  3.00100e-06
 Reference value :  3.00103e-06
 Reference value :  3.00109e-06
 Reference value :  3.00120e-06
 Reference value :  3.00143e-06
 Reference value :  3.00172e-06
 Reference value :  3.00209e-06
 Reference value :  3.00265e-06
 Reference value :  3.00375e-06
 Reference value :  3.00596e-06
 Reference value :  3.01038e-06
 Reference value :  3.01923e-06
 Reference value :  3.03692e-06
 Reference value :  3.06562e-06
 Reference value :  3.10053e-06
 Reference value :  3.15246e-06
 Reference value :  3.19718e-06
 Reference value :  3.23221e-06
 Reference value :  3.26576e-06
 Reference value :  3.29748e-06
 Reference value :  3.32824e-06
 Reference value :  3.35995e-06
 Reference value :  3.39456e-06
 Reference value :  3.43406e-06
 Reference value :  3.48125e-06
 Reference value :  3.54012e-06
 Reference value :  3.61549e-06
 Reference value :  3.71530e-06
 Reference value :  3.82553e-06
 Reference value :  3.83431e-06
 Reference value :  3.85187e-06
 Reference value :  3.87152e-06
 Reference value :  3.89315e-06
 Reference value :  3.91448e-06
 Reference value :  3.94253e-06
 Reference value :  3.97155e-06
 Reference value :  4.00000e-06
 Reference value :  4.00005e-06
 Reference value :  4.00015e-06
 Reference value :  4.00035e-06
 Reference value :  4.00050e-06
 Reference value :  4.00051e-06
 Reference value :  4.00054e-06
 Reference value :  4.00059e-06
 Reference value :  4.00070e-06
 Reference value :  4.00091e-06
 Reference value :  4.00134e-06
 Reference value :  4.00220e-06
 Reference value :  4.00391e-06
 Reference value :  4.00734e-06
 Reference value :  4.01246e-06
 Reference value :  4.01775e-06
 Reference value :  4.02832e-06
 Reference value :  4.04031e-06
 Reference value :  4.05138e-06
 Reference value :  4.07043e-06
 Reference value :  4.09118e-06
 Reference value :  4.11188e-06
 Reference value :  4.13602e-06
 Reference value :  4.17424e-06
 Reference value :  4.22719e-06
 Reference value :  4.27078e-06
 Reference value :  4.32789e-06
 Reference value :  4.44211e-06
 Reference value :  4.58261e-06
 Reference value :  4.84900e-06
 Reference value :  5.00050e-06
 Reference value :  5.00055e-06
 Reference value :  5.00065e-06
 Reference value :  5.00085e-06
 Reference value :  5.00100e-06
 Reference value :  5.00103e-06
 Reference value :  5.00109e-06
 Reference value :  5.00121e-06
 Reference value :  5.00146e-06
 Reference value :  5.00176e-06
 Reference value :  5.00214e-06
 Reference value :  5.00272e-06
 Reference value :  5.00387e-06
 Reference value :  5.00616e-06
 Reference value :  5.01075e-06
 Reference value :  5.01993e-06
 Reference value :  5.03829e-06
 Reference value :  5.07110e-06
 Reference value :  5.11096e-06
 Reference value :  5.17388e-06
 Reference value :  5.26061e-06
 Reference value :  5.40938e-06
 Reference value :  5.61637e-06
 Reference value :  5.90355e-06
 Reference value :  6.00000e-06
 Reference value :  6.00005e-06
 Reference value :  6.00015e-06
 Reference value :  6.00035e-06
 Reference value :  6.00050e-06
 Reference value :  6.00051e-06
 Reference value :  6.00054e-06
 Reference value :  6.00059e-06
 Reference value :  6.00069e-06
 Reference value :  6.00089e-06
 Reference value :  6.00129e-06
 Reference value :  6.00209e-06
 Reference value :  6.00369e-06
 Reference value :  6.00690e-06
 Reference value :  6.01064e-06
 Reference value :  6.01596e-06
 Reference value :  6.02660e-06
 Reference value :  6.03687e-06
 Reference value :  6.05516e-06
 Reference value :  6.07169e-06
 Reference value :  6.10474e-06
 Reference value :  6.17084e-06
 Reference value :  6.27563e-06
 Reference value :  6.47815e-06
 Reference value :  6.76206e-06
 Reference value :  7.00050e-06
 Reference value :  7.00055e-06
 Reference value :  7.00065e-06
 Reference value :  7.00085e-06
 Reference value :  7.00100e-06
 Reference value :  7.00103e-06
 Reference value :  7.00109e-06
 Reference value :  7.00121e-06
 Reference value :  7.00144e-06
 Reference value :  7.00174e-06
 Reference value :  7.00212e-06
 Reference value :  7.00268e-06
 Reference value :  7.00381e-06
 Reference value :  7.00606e-06
 Reference value :  7.01058e-06
 Reference value :  7.01960e-06
 Reference value :  7.03764e-06
 Reference value :  7.06820e-06
 Reference value :  7.10616e-06
 Reference value :  7.16434e-06
 Reference value :  7.24133e-06
 Reference value :  7.37434e-06
 Reference value :  7.55608e-06
 Reference value :  7.82624e-06
 Reference value :  8.00000e-06
 Reference value :  8.00005e-06
 Reference value :  8.00015e-06
 Reference value :  8.00035e-06
 Reference value :  8.00050e-06
 Reference value :  8.00051e-06
 Reference value :  8.00054e-06
 Reference value :  8.00058e-06
 Reference value :  8.00068e-06
 Reference value :  8.00087e-06
 Reference value :  8.00125e-06
 Reference value :  8.00201e-06
 Reference value :  8.00353e-06
 Reference value :  8.00657e-06
 Reference value :  8.01030e-06
 Reference value :  8.01531e-06
 Reference value :  8.02534e-06
 Reference value :  8.03538e-06
 Reference value :  8.05093e-06
 Reference value :  8.06718e-06
 Reference value :  8.09969e-06
 Reference value :  8.16471e-06
 Reference value :  8.29032e-06
 Reference value :  8.46689e-06
 Reference value :  8.77751e-06
 Reference value :  9.00050e-06
 Reference value :  9.00055e-06
 Reference value :  9.00065e-06
 Reference value :  9.00085e-06
 Reference value :  9.00100e-06
 Reference value :  9.00103e-06
 Reference value :  9.00109e-06
 Reference value :  9.00120e-06
 Reference value :  9.00143e-06
 Reference value :  9.00173e-06
 Reference value :  9.00210e-06
 Reference value :  9.00265e-06
 Reference value :  9.00377e-06
 Reference value :  9.00599e-06
 Reference value :  9.01044e-06
 Reference value :  9.01933e-06
 Reference value :  9.03712e-06
 Reference value :  9.06600e-06
 Reference value :  9.10259e-06
 Reference value :  9.15745e-06
 Reference value :  9.22937e-06
 Reference value :  9.35090e-06
 Reference value :  9.50896e-06
 Reference value :  9.77132e-06
 Reference value :  1.00000e-05
 Reference value :  1.00000e-05
 Reference value :  1.00001e-05
 Reference value :  1.00003e-05
 Reference value :  1.00005e-05
 Reference value :  1.00005e-05
 Reference value :  1.00005e-05
 Reference value :  1.00006e-05
 Reference value :  1.00007e-05
 Reference value :  1.00009e-05
 Reference value :  1.00012e-05
 Reference value :  1.00020e-05
 Reference value :  1.00035e-05
 Reference value :  1.00064e-05
 Reference value :  1.00102e-05
 Reference value :  1.00151e-05
 Reference value :  1.00248e-05
 Reference value :  1.00348e-05
 Reference value :  1.00499e-05
 Reference value :  1.00660e-05
 Reference value :  1.00980e-05
 Reference value :  1.01620e-05
 Reference value :  1.02872e-05
 Reference value :  1.04595e-05
 Reference value :  1.07685e-05
 Reference value :  1.10005e-05
 Reference value :  1.10005e-05
 Reference value :  1.10006e-05
 Reference value :  1.10008e-05
 Reference value :  1.10010e-05
 Reference value :  1.10010e-05
 Reference value :  1.10011e-05
 Reference value :  1.10012e-05
 Reference value :  1.10014e-05
 Reference value :  1.10017e-05
 Reference value :  1.10021e-05
 Reference value :  1.10026e-05
 Reference value :  1.10038e-05
 Reference value :  1.10060e-05
 Reference value :  1.10104e-05
 Reference value :  1.10193e-05
 Reference value :  1.10370e-05
 Reference value :  1.10653e-05
 Reference value :  1.11015e-05
 Reference value :  1.11553e-05
 Reference value :  1.12257e-05
 Reference value :  1.13437e-05
 Reference value :  1.14956e-05
 Reference value :  1.17550e-05
 Reference value :  1.20000e-05
 Reference value :  1.20000e-05
 Reference value :  1.20001e-05
 Reference value :  1.20003e-05
 Reference value :  1.20005e-05
 Reference value :  1.20005e-05
 Reference value :  1.20005e-05
 Reference value :  1.20006e-05
 Reference value :  1.20007e-05
 Reference value :  1.20009e-05
 Reference value :  1.20012e-05
 Reference value :  1.20020e-05
 Reference value :  1.20034e-05
 Reference value :  1.20064e-05
 Reference value :  1.20101e-05
 Reference value :  1.20150e-05
 Reference value :  1.20247e-05
 Reference value :  1.20346e-05
 Reference value :  1.20497e-05
 Reference value :  1.20656e-05
 Reference value :  1.20975e-05
 Reference value :  1.21613e-05
 Reference value :  1.22863e-05
 Reference value :  1.24574e-05
 Reference value :  1.27658e-05
 Reference value :  1.30005e-05
 Reference value :  1.30006e-05
 Reference value :  1.30007e-05
 Reference value :  1.30009e-05
 Reference value :  1.30010e-05
 Reference value :  1.30010e-05
 Reference value :  1.30011e-05
 Reference value :  1.30012e-05
 Reference value :  1.30014e-05
 Reference value :  1.30017e-05
 Reference value :  1.30021e-05
 Reference value :  1.30026e-05
 Reference value :  1.30038e-05
 Reference value :  1.30060e-05
 Reference value :  1.30104e-05
 Reference value :  1.30192e-05
 Reference value :  1.30369e-05
 Reference value :  1.30651e-05
 Reference value :  1.31012e-05
 Reference value :  1.31547e-05
 Reference value :  1.32247e-05
 Reference value :  1.33418e-05
 Reference value :  1.34921e-05
 Reference value :  1.37508e-05
 Reference value :  1.40000e-05
 Reference value :  1.40000e-05
 Reference value :  1.40002e-05
 Reference value :  1.40004e-05
 Reference value :  1.40005e-05
 Reference value :  1.40005e-05
 Reference value :  1.40005e-05
 Reference value :  1.40006e-05
 Reference value :  1.40007e-05
 Reference value :  1.40009e-05
 Reference value :  1.40012e-05
 Reference value :  1.40020e-05
 Reference value :  1.40034e-05
 Reference value :  1.40064e-05
 Reference value :  1.40101e-05
 Reference value :  1.40150e-05
 Reference value :  1.40246e-05
 Reference value :  1.40346e-05
 Reference value :  1.40496e-05
 Reference value :  1.40655e-05
 Reference value :  1.40974e-05
 Reference value :  1.41611e-05
 Reference value :  1.42860e-05
 Reference value :  1.44568e-05
 Reference value :  1.47651e-05
 Reference value :  1.50005e-05
 Reference value :  1.50005e-05
 Reference value :  1.50007e-05
 Reference value :  1.50009e-05
 Reference value :  1.50010e-05
 Reference value :  1.50010e-05
 Reference value :  1.50011e-05
 Reference value :  1.50012e-05
 Reference value :  1.50014e-05
 Reference value :  1.50017e-05
 Reference value :  1.50021e-05
 Reference value :  1.50026e-05
 Reference value :  1.50037e-05
 Reference value :  1.50060e-05
 Reference value :  1.50104e-05
 Reference value :  1.50192e-05
 Reference value :  1.50369e-05
 Reference value :  1.50651e-05
 Reference value :  1.51011e-05
 Reference value :  1.51545e-05
 Reference value :  1.52244e-05
 Reference value :  1.53413e-05
 Reference value :  1.54912e-05
 Reference value :  1.57496e-05
 Reference value :  1.60000e-05
 Reference value :  1.60000e-05
 Reference value :  1.60001e-05
 Reference value :  1.60004e-05
 Reference value :  1.60005e-05
 Reference value :  1.60005e-05
 Reference value :  1.60005e-05
 Reference value :  1.60006e-05
 Reference value :  1.60007e-05
 Reference value :  1.60009e-05
 Reference value :  1.60012e-05
 Reference value :  1.60020e-05
 Reference value :  1.60034e-05
 Reference value :  1.60064e-05
 Reference value :  1.60101e-05
 Reference value :  1.60150e-05
 Reference value :  1.60246e-05
 Reference value :  1.60346e-05
 Reference value :  1.60496e-05
 Reference value :  1.60655e-05
 Reference value :  1.60973e-05
 Reference value :  1.61610e-05
 Reference value :  1.62859e-05
 Reference value :  1.64567e-05
 Reference value :  1.67649e-05
 Reference value :  1.70005e-05
 Reference value :  1.70006e-05
 Reference value :  1.70007e-05
 Reference value :  1.70009e-05
 Reference value :  1.70010e-05
 Reference value :  1.70010e-05
 Reference value :  1.70011e-05
 Reference value :  1.70012e-05
 Reference value :  1.70014e-05
 Reference value :  1.70017e-05
 Reference value :  1.70021e-05
 Reference value :  1.70026e-05
 Reference value :  1.70037e-05
 Reference value :  1.70060e-05
 Reference value :  1.70104e-05
 Reference value :  1.70192e-05
 Reference value :  1.70369e-05
 Reference value :  1.70651e-05
 Reference value :  1.71011e-05
 Reference value :  1.71545e-05
 Reference value :  1.72244e-05
 Reference value :  1.73412e-05
 Reference value :  1.74909e-05
 Reference value :  1.77494e-05
 Reference value :  1.80000e-05
 Reference value :  1.80001e-05
 Reference value :  1.80002e-05
 Reference value :  1.80004e-05
 Reference value :  1.80005e-05
 Reference value :  1.80005e-05
 Reference value :  1.80005e-05
 Reference value :  1.80006e-05
 Reference value :  1.80007e-05
 Reference value :  1.80009e-05
 Reference value :  1.80012e-05
 Reference value :  1.80020e-05
 Reference value :  1.80034e-05
 Reference value :  1.80064e-05
 Reference value :  1.80101e-05
 Reference value :  1.80150e-05
 Reference value :  1.80246e-05
 Reference value :  1.80346e-05
 Reference value :  1.80496e-05
 Reference value :  1.80655e-05
 Reference value :  1.80973e-05
 Reference value :  1.81610e-05
 Reference value :  1.82859e-05
 Reference value :  1.84566e-05
 Reference value :  1.87648e-05
 Reference value :  1.90005e-05
 Reference value :  1.90006e-05
 Reference value :  1.90007e-05
 Reference value :  1.90009e-05
 Reference value :  1.90010e-05
 Reference value :  1.90010e-05
 Reference value :  1.90011e-05
 Reference value :  1.90012e-05
 Reference value :  1.90014e-05
 Reference value :  1.90017e-05
 Reference value :  1.90021e-05
 Reference value :  1.90026e-05
 Reference value :  1.90037e-05
 Reference value :  1.90060e-05
 Reference value :  1.90104e-05
 Reference value :  1.90192e-05
 Reference value :  1.90369e-05
 Reference value :  1.90651e-05
 Reference value :  1.91011e-05
 Reference value :  1.91545e-05
 Reference value :  1.92243e-05
 Reference value :  1.93412e-05
 Reference value :  1.94909e-05
 Reference value :  1.97493e-05
 Reference value :  2.00000e-05
 Reference value :  2.00001e-05
 Reference value :  2.00002e-05
 Reference value :  2.00004e-05
 Reference value :  2.00005e-05
 Reference value :  2.00005e-05
 Reference value :  2.00005e-05
 Reference value :  2.00006e-05
 Reference value :  2.00007e-05
 Reference value :  2.00009e-05
 Reference value :  2.00012e-05
 Reference value :  2.00020e-05
 Reference value :  2.00034e-05
 Reference value :  2.00064e-05
 Reference value :  2.00101e-05
 Reference value :  2.00150e-05
 Reference value :  2.00246e-05
 Reference value :  2.00346e-05
 Reference value :  2.00496e-05
 Reference value :  2.00655e-05
 Reference value :  2.00973e-05
 Reference value :  2.01610e-05
 Reference value :  2.02859e-05
 Reference value :  2.04566e-05
 Reference value :  2.07648e-05
 Reference value :  2.10005e-05
 Reference value :  2.10005e-05
 Reference value :  2.10006e-05
 Reference value :  2.10008e-05
 Reference value :  2.10010e-05
 Reference value :  2.10010e-05
 Reference value :  2.10011e-05
 Reference value :  2.10012e-05
 Reference value :  2.10014e-05
 Reference value :  2.10017e-05
 Reference value :  2.10021e-05
 Reference value :  2.10026e-05
 Reference value :  2.10037e-05
 Reference value :  2.10060e-05
 Reference value :  2.10104e-05
 Reference value :  2.10192e-05
 Reference value :  2.10369e-05
 Reference value :  2.10651e-05
 Reference value :  2.11011e-05
 Reference value :  2.11545e-05
 Reference value :  2.12243e-05
 Reference value :  2.13412e-05
 Reference value :  2.14909e-05
 Reference value :  2.17492e-05
 Reference value :  2.20000e-05
 Reference value :  2.20000e-05
 Reference value :  2.20001e-05
 Reference value :  2.20004e-05
 Reference value :  2.20005e-05
 Reference value :  2.20005e-05
 Reference value :  2.20005e-05
 Reference value :  2.20006e-05
 Reference value :  2.20007e-05
 Reference value :  2.20009e-05
 Reference value :  2.20012e-05
 Reference value :  2.20020e-05
 Reference value :  2.20034e-05
 Reference value :  2.20064e-05
 Reference value :  2.20101e-05
 Reference value :  2.20150e-05
 Reference value :  2.20246e-05
 Reference value :  2.20346e-05
 Reference value :  2.20496e-05
 Reference value :  2.20655e-05
 Reference value :  2.20973e-05
 Reference value :  2.21610e-05
 Reference value :  2.22859e-05
 Reference value :  2.24566e-05
 Reference value :  2.27648e-05
 Reference value :  2.30005e-05
 Reference value :  2.30005e-05
 Reference value :  2.30006e-05
 Reference value :  2.30008e-05
 Reference value :  2.30010e-05
 Reference value :  2.30010e-05
 Reference value :  2.30011e-05
 Reference value :  2.30012e-05
 Reference value :  2.30014e-05
 Reference value :  2.30017e-05
 Reference value :  2.30021e-05
 Reference value :  2.30026e-05
 Reference value :  2.30037e-05
 Reference value :  2.30060e-05
 Reference value :  2.30104e-05
 Reference value :  2.30192e-05
 Reference value :  2.30369e-05
 Reference value :  2.30651e-05
 Reference value :  2.31011e-05
 Reference value :  2.31545e-05
 Reference value :  2.32243e-05
 Reference value :  2.33412e-05
 Reference value :  2.34909e-05
 Reference value :  2.37492e-05
 Reference value :  2.40000e-05
 Reference value :  2.40001e-05
 Reference value :  2.40002e-05
 Reference value :  2.40004e-05
 Reference value :  2.40005e-05
 Reference value :  2.40005e-05
 Reference value :  2.40005e-05
 Reference value :  2.40006e-05
 Reference value :  2.40007e-05
 Reference value :  2.40009e-05
 Reference value :  2.40012e-05
 Reference value :  2.40020e-05
 Reference value :  2.40034e-05
 Reference value :  2.40064e-05
 Reference value :  2.40101e-05
 Reference value :  2.40150e-05
 Reference value :  2.40246e-05
 Reference value :  2.40346e-05
 Reference value :  2.40496e-05
 Reference value :  2.40655e-05
 Reference value :  2.40973e-05
 Reference value :  2.41610e-05
 Reference value :  2.42859e-05
 Reference value :  2.44566e-05
 Reference value :  2.47648e-05
 Reference value :  2.50005e-05
 Reference value :  2.50005e-05
 Reference value :  2.50006e-05
 Reference value :  2.50008e-05
 Reference value :  2.50010e-05
 Reference value :  2.50010e-05
 Reference value :  2.50011e-05
 Reference value :  2.50012e-05
 Reference value :  2.50014e-05
 Reference value :  2.50017e-05
 Reference value :  2.50021e-05
 Reference value :  2.50026e-05
 Reference value :  2.50037e-05
 Reference value :  2.50060e-05
 Reference value :  2.50104e-05
 Reference value :  2.50192e-05
 Reference value :  2.50369e-05
 Reference value :  2.50651e-05
 Reference value :  2.51011e-05
 Reference value :  2.51545e-05
 Reference value :  2.52243e-05
 Reference value :  2.53412e-05
 Reference value :  2.54909e-05
 Reference value :  2.57492e-05
 Reference value :  2.60000e-05
 Reference value :  2.60001e-05
 Reference value :  2.60002e-05
 Reference value :  2.60004e-05
 Reference value :  2.60005e-05
 Reference value :  2.60005e-05
 Reference value :  2.60005e-05
 Reference value :  2.60006e-05
 Reference value :  2.60007e-05
 Reference value :  2.60009e-05
 Reference value :  2.60012e-05
 Reference value :  2.60020e-05
 Reference value :  2.60034e-05
 Reference value :  2.60064e-05
 Reference value :  2.60101e-05
 Reference value :  2.60150e-05
 Reference value :  2.60246e-05
 Reference value :  2.60346e-05
 Reference value :  2.60496e-05
 Reference value :  2.60655e-05
 Reference value :  2.60973e-05
 Reference value :  2.61610e-05
 Reference value :  2.62859e-05
 Reference value :  2.64566e-05
 Reference value :  2.67647e-05
 Reference value :  2.70005e-05
 Reference value :  2.70006e-05
 Reference value :  2.70007e-05
 Reference value :  2.70009e-05
 Reference value :  2.70010e-05
 Reference value :  2.70010e-05
 Reference value :  2.70011e-05
 Reference value :  2.70012e-05
 Reference value :  2.70014e-05
 Reference value :  2.70017e-05
 Reference value :  2.70021e-05
 Reference value :  2.70026e-05
 Reference value :  2.70037e-05
 Reference value :  2.70060e-05
 Reference value :  2.70104e-05
 Reference value :  2.70192e-05
 Reference value :  2.70369e-05
 Reference value :  2.70651e-05
 Reference value :  2.71011e-05
 Reference value :  2.71545e-05
 Reference value :  2.72243e-05
 Reference value :  2.73412e-05
 Reference value :  2.74909e-05
 Reference value :  2.77492e-05
 Reference value :  2.80000e-05
 Reference value :  2.80000e-05
 Reference value :  2.80001e-05
 Reference value :  2.80004e-05
 Reference value :  2.80005e-05
 Reference value :  2.80005e-05
 Reference value :  2.80005e-05
 Reference value :  2.80006e-05
 Reference value :  2.80007e-05
 Reference value :  2.80009e-05
 Reference value :  2.80012e-05
 Reference value :  2.80020e-05
 Reference value :  2.80034e-05
 Reference value :  2.80064e-05
 Reference value :  2.80101e-05
 Reference value :  2.80150e-05
 Reference value :  2.80246e-05
 Reference value :  2.80346e-05
 Reference value :  2.80496e-05
 Reference value :  2.80655e-05
 Reference value :  2.80973e-05
 Reference value :  2.81610e-05
 Reference value :  2.82859e-05
 Reference value :  2.84566e-05
 Reference value :  2.87647e-05
 Reference value :  2.90005e-05
 Reference value :  2.90006e-05
 Reference value :  2.90007e-05
 Reference value :  2.90009e-05
 Reference value :  2.90010e-05
 Reference value :  2.90010e-05
 Reference value :  2.90011e-05
 Reference value :  2.90012e-05
 Reference value :  2.90014e-05
 Reference value :  2.90017e-05
 Reference value :  2.90021e-05
 Reference value :  2.90026e-05
 Reference value :  2.90037e-05
 Reference value :  2.90060e-05
 Reference value :  2.90104e-05
 Reference value :  2.90192e-05
 Reference value :  2.90369e-05
 Reference value :  2.90651e-05
 Reference value :  2.91011e-05
 Reference value :  2.91545e-05
 Reference value :  2.92243e-05
 Reference value :  2.93412e-05
 Reference value :  2.94909e-05
 Reference value :  2.97493e-05
 Reference value :  3.00000e-05
 Reference value :  3.00001e-05
 Reference value :  3.00002e-05
 Reference value :  3.00004e-05
 Reference value :  3.00005e-05
 Reference value :  3.00005e-05
 Reference value :  3.00005e-05
 Reference value :  3.00006e-05
 Reference value :  3.00007e-05
 Reference value :  3.00009e-05
 Reference value :  3.00012e-05
 Reference value :  3.00020e-05
 Reference value :  3.00034e-05
 Reference value :  3.00064e-05
 Reference value :  3.00101e-05
 Reference value :  3.00150e-05
 Reference value :  3.00246e-05
 Reference value :  3.00346e-05
 Reference value :  3.00496e-05
 Reference value :  3.00655e-05
 Reference value :  3.00973e-05
 Reference value :  3.01610e-05
 Reference value :  3.02859e-05
 Reference value :  3.04565e-05
 Reference value :  3.07647e-05
 Reference value :  3.10005e-05
 Reference value :  3.10005e-05
 Reference value :  3.10006e-05
 Reference value :  3.10008e-05
 Reference value :  3.10010e-05
 Reference value :  3.10010e-05
 Reference value :  3.10011e-05
 Reference value :  3.10012e-05
 Reference value :  3.10014e-05
 Reference value :  3.10017e-05
 Reference value :  3.10021e-05
 Reference value :  3.10026e-05
 Reference value :  3.10037e-05
 Reference value :  3.10060e-05
 Reference value :  3.10104e-05
 Reference value :  3.10192e-05
 Reference value :  3.10369e-05
 Reference value :  3.10651e-05
 Reference value :  3.11011e-05
 Reference value :  3.11545e-05
 Reference value :  3.12243e-05
 Reference value :  3.13412e-05
 Reference value :  3.14909e-05
 Reference value :  3.17492e-05
 Reference value :  3.20000e-05
 Reference value :  3.20000e-05
 Reference value :  3.20001e-05
 Reference value :  3.20003e-05
 Reference value :  3.20005e-05
 Reference value :  3.20005e-05
 Reference value :  3.20005e-05
 Reference value :  3.20006e-05
 Reference value :  3.20007e-05
 Reference value :  3.20009e-05
 Reference value :  3.20012e-05
 Reference value :  3.20020e-05
 Reference value :  3.20034e-05
 Reference value :  3.20064e-05
 Reference value :  3.20101e-05
 Reference value :  3.20150e-05
 Reference value :  3.20246e-05
 Reference value :  3.20346e-05
 Reference value :  3.20496e-05
 Reference value :  3.20655e-05
 Reference value :  3.20973e-05
 Reference value :  3.21610e-05
 Reference value :  3.22859e-05
 Reference value :  3.24565e-05
 Reference value :  3.27647e-05
 Reference value :  3.30005e-05
 Reference value :  3.30006e-05
 Reference value :  3.30007e-05
 Reference value :  3.30009e-05
 Reference value :  3.30010e-05
 Reference value :  3.30010e-05
 Reference value :  3.30011e-05
 Reference value :  3.30012e-05
 Reference value :  3.30014e-05
 Reference value :  3.30017e-05
 Reference value :  3.30021e-05
 Reference value :  3.30026e-05
 Reference value :  3.30037e-05
 Reference value :  3.30060e-05
 Reference value :  3.30104e-05
 Reference value :  3.30192e-05
 Reference value :  3.30369e-05
 Reference value :  3.30651e-05
 Reference value :  3.31011e-05
 Reference value :  3.31545e-05
 Reference value :  3.32243e-05
 Reference value :  3.33412e-05
 Reference value :  3.34909e-05
 Reference value :  3.37492e-05
 Reference value :  3.40000e-05
No. of Data Rows : 936
ngspice-44 done
