
Note: Compatibility modes selected: hs a


Circuit: ** sch_path: /home/audrey/cace/sar-adc-using-sky130-pdk/runs/run_2025-08-29_17-28-30/parameters/power/run_01/power_consumption.sch

option SCALE: Scale is set to 1e-06 for instance and model parameters
option SCALE: Scale is set to 1e-06 for instance and model parameters
option SCALE: Scale is set to 1e-06 for instance and model parameters
option SCALE: Scale is set to 1e-06 for instance and model parameters
Doing analysis at TEMP = 27.000000 and TNOM = 27.000000

Using KLU as Direct Linear Solver
Operating point simulation skipped by 'uic',
  now using transient initial conditions.
 Reference value :  5.00000e-12
 Reference value :  5.14000e-12
 Reference value :  5.98000e-12
 Reference value :  8.70151e-12
 Reference value :  1.62529e-11
 Reference value :  2.28508e-11
 Reference value :  3.60465e-11
 Reference value :  6.24381e-11
 Reference value :  1.15221e-10
 Reference value :  3.65541e-10
 Reference value :  5.15368e-10
 Reference value :  6.07574e-10
 Reference value :  7.30515e-10
 Reference value :  9.76397e-10
 Reference value :  1.63683e-09
 Reference value :  2.71462e-09
 Reference value :  4.40988e-09
 Reference value :  6.58144e-09
 Reference value :  7.54491e-09
 Reference value :  8.91232e-09
 Reference value :  1.20848e-08
 Reference value :  1.40663e-08
 Reference value :  1.74476e-08
 Reference value :  2.64000e-08
 Reference value :  3.96412e-08
 Reference value :  8.71027e-08
 Reference value :  3.19637e-07
 Reference value :  5.73687e-07
 Reference value :  1.00055e-06
 Reference value :  1.00100e-06
 Reference value :  1.00109e-06
 Reference value :  1.00139e-06
 Reference value :  1.00241e-06
 Reference value :  1.00420e-06
 Reference value :  1.00473e-06
 Reference value :  1.00603e-06
 Reference value :  1.00900e-06
 Reference value :  1.02376e-06
 Reference value :  1.17728e-06
 Reference value :  2.00005e-06
 Reference value :  2.00050e-06
 Reference value :  2.00060e-06
 Reference value :  2.00102e-06
 Reference value :  2.00139e-06
 Reference value :  2.00221e-06
 Reference value :  2.00320e-06
 Reference value :  2.00439e-06
 Reference value :  2.00598e-06
 Reference value :  2.00703e-06
 Reference value :  2.00871e-06
 Reference value :  2.00990e-06
 Reference value :  2.01120e-06
 Reference value :  2.01260e-06
 Reference value :  2.01583e-06
 Reference value :  2.01781e-06
 Reference value :  2.02382e-06
 Reference value :  2.03682e-06
 Reference value :  2.07947e-06
 Reference value :  2.43632e-06
 Reference value :  3.00055e-06
 Reference value :  3.00065e-06
 Reference value :  3.00085e-06
 Reference value :  3.00103e-06
 Reference value :  3.00110e-06
 Reference value :  3.00124e-06
 Reference value :  3.00151e-06
 Reference value :  3.00178e-06
 Reference value :  3.00219e-06
 Reference value :  3.00265e-06
 Reference value :  3.00313e-06
 Reference value :  3.00379e-06
 Reference value :  3.00431e-06
 Reference value :  3.00493e-06
 Reference value :  3.00548e-06
 Reference value :  3.00685e-06
 Reference value :  3.00925e-06
 Reference value :  3.01439e-06
 Reference value :  3.02977e-06
 Reference value :  3.17330e-06
 Reference value :  3.66540e-06
 Reference value :  4.00015e-06
 Reference value :  4.00050e-06
 Reference value :  4.00060e-06
 Reference value :  4.00102e-06
 Reference value :  4.00139e-06
 Reference value :  4.00221e-06
 Reference value :  4.00321e-06
 Reference value :  4.00376e-06
 Reference value :  4.00428e-06
 Reference value :  4.00540e-06
 Reference value :  4.00601e-06
 Reference value :  4.00744e-06
 Reference value :  4.00845e-06
 Reference value :  4.01162e-06
 Reference value :  4.01294e-06
 Reference value :  4.01403e-06
 Reference value :  4.01621e-06
 Reference value :  4.01828e-06
 Reference value :  4.02280e-06
 Reference value :  4.03075e-06
 Reference value :  4.03951e-06
 Reference value :  4.04643e-06
 Reference value :  4.05285e-06
 Reference value :  4.05927e-06
 Reference value :  4.06874e-06
 Reference value :  4.08032e-06
 Reference value :  4.11799e-06
 Reference value :  4.32496e-06
 Reference value :  4.65386e-06
 Reference value :  5.00055e-06
 Reference value :  5.00085e-06
 Reference value :  5.00103e-06
 Reference value :  5.00110e-06
 Reference value :  5.00151e-06
 Reference value :  5.00219e-06
 Reference value :  5.00314e-06
 Reference value :  5.00430e-06
 Reference value :  5.00542e-06
 Reference value :  5.00695e-06
 Reference value :  5.00948e-06
 Reference value :  5.01161e-06
 Reference value :  5.01479e-06
 Reference value :  5.03358e-06
 Reference value :  5.10871e-06
 Reference value :  5.40923e-06
 Reference value :  6.00005e-06
 Reference value :  6.00035e-06
 Reference value :  6.00053e-06
 Reference value :  6.00074e-06
 Reference value :  6.00139e-06
 Reference value :  6.00217e-06
 Reference value :  6.00312e-06
 Reference value :  6.00376e-06
 Reference value :  6.00506e-06
 Reference value :  6.00614e-06
 Reference value :  6.00693e-06
 Reference value :  6.00867e-06
 Reference value :  6.01198e-06
 Reference value :  6.02716e-06
 Reference value :  6.13764e-06
 Reference value :  6.97950e-06
 Reference value :  7.00065e-06
 Reference value :  7.00100e-06
 Reference value :  7.00110e-06
 Reference value :  7.00151e-06
 Reference value :  7.00219e-06
 Reference value :  7.00314e-06
 Reference value :  7.00431e-06
 Reference value :  7.00547e-06
 Reference value :  7.00681e-06
 Reference value :  7.00945e-06
 Reference value :  7.01220e-06
 Reference value :  7.01425e-06
 Reference value :  7.02246e-06
 Reference value :  7.09029e-06
 Reference value :  7.24340e-06
 Reference value :  7.85584e-06
 Reference value :  8.00015e-06
 Reference value :  8.00053e-06
 Reference value :  8.00074e-06
 Reference value :  8.00139e-06
 Reference value :  8.00221e-06
 Reference value :  8.00267e-06
 Reference value :  8.00321e-06
 Reference value :  8.00376e-06
 Reference value :  8.00429e-06
 Reference value :  8.00488e-06
 Reference value :  8.00544e-06
 Reference value :  8.00678e-06
 Reference value :  8.00760e-06
 Reference value :  8.00969e-06
 Reference value :  8.01077e-06
 Reference value :  8.01185e-06
 Reference value :  8.01298e-06
 Reference value :  8.01384e-06
 Reference value :  8.01563e-06
 Reference value :  8.01664e-06
 Reference value :  8.01878e-06
 Reference value :  8.02397e-06
 Reference value :  8.03682e-06
 Reference value :  8.11950e-06
 Reference value :  8.22934e-06
 Reference value :  8.29558e-06
 Reference value :  8.36892e-06
 Reference value :  8.60310e-06
 Reference value :  9.00050e-06
 Reference value :  9.00085e-06
 Reference value :  9.00103e-06
 Reference value :  9.00124e-06
 Reference value :  9.00178e-06
 Reference value :  9.00219e-06
 Reference value :  9.00266e-06
 Reference value :  9.00381e-06
 Reference value :  9.00433e-06
 Reference value :  9.00548e-06
 Reference value :  9.00608e-06
 Reference value :  9.00802e-06
 Reference value :  9.01187e-06
 Reference value :  9.02208e-06
 Reference value :  9.11704e-06
 Reference value :  9.87671e-06
 Reference value :  1.00000e-05
 Reference value :  1.00005e-05
 Reference value :  1.00006e-05
 Reference value :  1.00014e-05
 Reference value :  1.00018e-05
 Reference value :  1.00022e-05
 Reference value :  1.00031e-05
 Reference value :  1.00038e-05
 Reference value :  1.00044e-05
 Reference value :  1.00061e-05
 Reference value :  1.00069e-05
 Reference value :  1.00087e-05
 Reference value :  1.00120e-05
 Reference value :  1.00190e-05
 Reference value :  1.00761e-05
 Reference value :  1.02626e-05
 Reference value :  1.10005e-05
 Reference value :  1.10008e-05
 Reference value :  1.10010e-05
 Reference value :  1.10011e-05
 Reference value :  1.10015e-05
 Reference value :  1.10022e-05
 Reference value :  1.10038e-05
 Reference value :  1.10043e-05
 Reference value :  1.10055e-05
 Reference value :  1.10068e-05
 Reference value :  1.10084e-05
 Reference value :  1.10094e-05
 Reference value :  1.10105e-05
 Reference value :  1.10122e-05
 Reference value :  1.10142e-05
 Reference value :  1.10225e-05
 Reference value :  1.10420e-05
 Reference value :  1.10903e-05
 Reference value :  1.11413e-05
 Reference value :  1.18555e-05
 Reference value :  1.20000e-05
 Reference value :  1.20003e-05
 Reference value :  1.20005e-05
 Reference value :  1.20007e-05
 Reference value :  1.20010e-05
 Reference value :  1.20014e-05
 Reference value :  1.20022e-05
 Reference value :  1.20032e-05
 Reference value :  1.20038e-05
 Reference value :  1.20043e-05
 Reference value :  1.20049e-05
 Reference value :  1.20054e-05
 Reference value :  1.20061e-05
 Reference value :  1.20076e-05
 Reference value :  1.20097e-05
 Reference value :  1.20118e-05
 Reference value :  1.20130e-05
 Reference value :  1.20138e-05
 Reference value :  1.20147e-05
 Reference value :  1.20156e-05
 Reference value :  1.20166e-05
 Reference value :  1.20176e-05
 Reference value :  1.20218e-05
 Reference value :  1.20505e-05
 Reference value :  1.20653e-05
 Reference value :  1.20962e-05
 Reference value :  1.21083e-05
 Reference value :  1.21132e-05
 Reference value :  1.21183e-05
 Reference value :  1.21338e-05
 Reference value :  1.21587e-05
 Reference value :  1.22051e-05
 Reference value :  1.23239e-05
 Reference value :  1.23822e-05
 Reference value :  1.24205e-05
 Reference value :  1.24799e-05
 Reference value :  1.25337e-05
 Reference value :  1.26263e-05
 Reference value :  1.27175e-05
 Reference value :  1.28612e-05
 Reference value :  1.30005e-05
 Reference value :  1.30007e-05
 Reference value :  1.30009e-05
 Reference value :  1.30010e-05
 Reference value :  1.30010e-05
 Reference value :  1.30011e-05
 Reference value :  1.30015e-05
 Reference value :  1.30018e-05
 Reference value :  1.30022e-05
 Reference value :  1.30031e-05
 Reference value :  1.30043e-05
 Reference value :  1.30054e-05
 Reference value :  1.30069e-05
 Reference value :  1.30094e-05
 Reference value :  1.30208e-05
 Reference value :  1.30577e-05
 Reference value :  1.34026e-05
 Reference value :  1.37967e-05
 Reference value :  1.40000e-05
 Reference value :  1.40004e-05
 Reference value :  1.40005e-05
 Reference value :  1.40006e-05
 Reference value :  1.40010e-05
 Reference value :  1.40014e-05
 Reference value :  1.40022e-05
 Reference value :  1.40026e-05
 Reference value :  1.40038e-05
 Reference value :  1.40051e-05
 Reference value :  1.40061e-05
 Reference value :  1.40069e-05
 Reference value :  1.40087e-05
 Reference value :  1.40108e-05
 Reference value :  1.40120e-05
 Reference value :  1.40188e-05
 Reference value :  1.40273e-05
 Reference value :  1.40768e-05
 Reference value :  1.42685e-05
 Reference value :  1.50005e-05
 Reference value :  1.50007e-05
 Reference value :  1.50009e-05
 Reference value :  1.50010e-05
 Reference value :  1.50011e-05
 Reference value :  1.50015e-05
 Reference value :  1.50022e-05
 Reference value :  1.50031e-05
 Reference value :  1.50038e-05
 Reference value :  1.50043e-05
 Reference value :  1.50049e-05
 Reference value :  1.50055e-05
 Reference value :  1.50068e-05
 Reference value :  1.50076e-05
 Reference value :  1.50094e-05
 Reference value :  1.50105e-05
 Reference value :  1.50122e-05
 Reference value :  1.50173e-05
 Reference value :  1.50297e-05
 Reference value :  1.50606e-05
 Reference value :  1.50901e-05
 Reference value :  1.52383e-05
 Reference value :  1.54355e-05
 Reference value :  1.60000e-05
 Reference value :  1.60000e-05
 Reference value :  1.60001e-05
 Reference value :  1.60004e-05
 Reference value :  1.60005e-05
 Reference value :  1.60005e-05
 Reference value :  1.60006e-05
 Reference value :  1.60010e-05
 Reference value :  1.60014e-05
 Reference value :  1.60022e-05
 Reference value :  1.60032e-05
 Reference value :  1.60038e-05
 Reference value :  1.60043e-05
 Reference value :  1.60049e-05
 Reference value :  1.60054e-05
 Reference value :  1.60068e-05
 Reference value :  1.60076e-05
 Reference value :  1.60097e-05
 Reference value :  1.60108e-05
 Reference value :  1.60118e-05
 Reference value :  1.60130e-05
 Reference value :  1.60139e-05
 Reference value :  1.60157e-05
 Reference value :  1.60167e-05
 Reference value :  1.60189e-05
 Reference value :  1.60219e-05
 Reference value :  1.60306e-05
 Reference value :  1.60338e-05
 Reference value :  1.60360e-05
 Reference value :  1.60384e-05
 Reference value :  1.60434e-05
 Reference value :  1.60475e-05
 Reference value :  1.60570e-05
 Reference value :  1.60631e-05
 Reference value :  1.60909e-05
 Reference value :  1.61489e-05
 Reference value :  1.64138e-05
 Reference value :  1.66279e-05
 Reference value :  1.70005e-05
 Reference value :  1.70006e-05
 Reference value :  1.70009e-05
 Reference value :  1.70010e-05
 Reference value :  1.70011e-05
 Reference value :  1.70014e-05
 Reference value :  1.70017e-05
 Reference value :  1.70026e-05
 Reference value :  1.70031e-05
 Reference value :  1.70038e-05
 Reference value :  1.70045e-05
 Reference value :  1.70050e-05
 Reference value :  1.70062e-05
 Reference value :  1.70070e-05
 Reference value :  1.70095e-05
 Reference value :  1.70150e-05
 Reference value :  1.70210e-05
 Reference value :  1.70554e-05
 Reference value :  1.71006e-05
 Reference value :  1.71909e-05
 Reference value :  1.77330e-05
 Reference value :  1.80001e-05
 Reference value :  1.80004e-05
 Reference value :  1.80005e-05
 Reference value :  1.80007e-05
 Reference value :  1.80015e-05
 Reference value :  1.80025e-05
 Reference value :  1.80030e-05
 Reference value :  1.80035e-05
 Reference value :  1.80041e-05
 Reference value :  1.80053e-05
 Reference value :  1.80068e-05
 Reference value :  1.80076e-05
 Reference value :  1.80086e-05
 Reference value :  1.80104e-05
 Reference value :  1.80127e-05
 Reference value :  1.80151e-05
 Reference value :  1.80192e-05
 Reference value :  1.80419e-05
 Reference value :  1.81251e-05
 Reference value :  1.90005e-05
 Reference value :  1.90007e-05
 Reference value :  1.90009e-05
 Reference value :  1.90010e-05
 Reference value :  1.90010e-05
 Reference value :  1.90011e-05
 Reference value :  1.90012e-05
 Reference value :  1.90014e-05
 Reference value :  1.90021e-05
 Reference value :  1.90031e-05
 Reference value :  1.90045e-05
 Reference value :  1.90050e-05
 Reference value :  1.90063e-05
 Reference value :  1.90071e-05
 Reference value :  1.90079e-05
 Reference value :  1.90152e-05
 Reference value :  1.90337e-05
 Reference value :  1.91021e-05
 Reference value :  1.93735e-05
 Reference value :  2.00000e-05
 Reference value :  2.00002e-05
 Reference value :  2.00005e-05
 Reference value :  2.00006e-05
 Reference value :  2.00010e-05
 Reference value :  2.00015e-05
 Reference value :  2.00025e-05
 Reference value :  2.00035e-05
 Reference value :  2.00046e-05
 Reference value :  2.00056e-05
 Reference value :  2.00062e-05
 Reference value :  2.00076e-05
 Reference value :  2.00090e-05
 Reference value :  2.00106e-05
 Reference value :  2.00120e-05
 Reference value :  2.00146e-05
 Reference value :  2.00155e-05
 Reference value :  2.00165e-05
 Reference value :  2.00190e-05
 Reference value :  2.00223e-05
 Reference value :  2.00294e-05
 Reference value :  2.00355e-05
 Reference value :  2.00494e-05
 Reference value :  2.00630e-05
 Reference value :  2.00767e-05
 Reference value :  2.01105e-05
 Reference value :  2.01291e-05
 Reference value :  2.01463e-05
 Reference value :  2.01573e-05
 Reference value :  2.01813e-05
 Reference value :  2.02791e-05
 Reference value :  2.07291e-05
 Reference value :  2.10005e-05
 Reference value :  2.10008e-05
 Reference value :  2.10010e-05
 Reference value :  2.10010e-05
 Reference value :  2.10011e-05
 Reference value :  2.10014e-05
 Reference value :  2.10021e-05
 Reference value :  2.10031e-05
 Reference value :  2.10045e-05
 Reference value :  2.10050e-05
 Reference value :  2.10071e-05
 Reference value :  2.10118e-05
 Reference value :  2.10336e-05
 Reference value :  2.13883e-05
 Reference value :  2.20000e-05
 Reference value :  2.20004e-05
 Reference value :  2.20005e-05
 Reference value :  2.20007e-05
 Reference value :  2.20010e-05
 Reference value :  2.20015e-05
 Reference value :  2.20025e-05
 Reference value :  2.20035e-05
 Reference value :  2.20041e-05
 Reference value :  2.20047e-05
 Reference value :  2.20062e-05
 Reference value :  2.20068e-05
 Reference value :  2.20086e-05
 Reference value :  2.20104e-05
 Reference value :  2.20115e-05
 Reference value :  2.20192e-05
 Reference value :  2.20416e-05
 Reference value :  2.21237e-05
 Reference value :  2.24521e-05
 Reference value :  2.30005e-05
 Reference value :  2.30008e-05
 Reference value :  2.30010e-05
 Reference value :  2.30012e-05
 Reference value :  2.30017e-05
 Reference value :  2.30026e-05
 Reference value :  2.30038e-05
 Reference value :  2.30050e-05
 Reference value :  2.30063e-05
 Reference value :  2.30095e-05
 Reference value :  2.30213e-05
 Reference value :  2.31020e-05
 Reference value :  2.37363e-05
 Reference value :  2.40002e-05
 Reference value :  2.40005e-05
 Reference value :  2.40006e-05
 Reference value :  2.40010e-05
 Reference value :  2.40015e-05
 Reference value :  2.40025e-05
 Reference value :  2.40035e-05
 Reference value :  2.40046e-05
 Reference value :  2.40056e-05
 Reference value :  2.40062e-05
 Reference value :  2.40090e-05
 Reference value :  2.40106e-05
 Reference value :  2.40120e-05
 Reference value :  2.40135e-05
 Reference value :  2.40146e-05
 Reference value :  2.40155e-05
 Reference value :  2.40165e-05
 Reference value :  2.40176e-05
 Reference value :  2.40190e-05
 Reference value :  2.40223e-05
 Reference value :  2.40295e-05
 Reference value :  2.40360e-05
 Reference value :  2.40433e-05
 Reference value :  2.40512e-05
 Reference value :  2.40586e-05
 Reference value :  2.40727e-05
 Reference value :  2.40956e-05
 Reference value :  2.41257e-05
 Reference value :  2.41800e-05
 Reference value :  2.43311e-05
 Reference value :  2.44719e-05
 Reference value :  2.47231e-05
 Reference value :  2.50006e-05
 Reference value :  2.50010e-05
 Reference value :  2.50011e-05
 Reference value :  2.50014e-05
 Reference value :  2.50017e-05
 Reference value :  2.50026e-05
 Reference value :  2.50031e-05
 Reference value :  2.50044e-05
 Reference value :  2.50050e-05
 Reference value :  2.50062e-05
 Reference value :  2.50079e-05
 Reference value :  2.50217e-05
 Reference value :  2.51052e-05
 Reference value :  2.53881e-05
 Reference value :  2.60001e-05
 Reference value :  2.60004e-05
 Reference value :  2.60005e-05
 Reference value :  2.60007e-05
 Reference value :  2.60010e-05
 Reference value :  2.60020e-05
 Reference value :  2.60025e-05
 Reference value :  2.60035e-05
 Reference value :  2.60042e-05
 Reference value :  2.60048e-05
 Reference value :  2.60056e-05
 Reference value :  2.60065e-05
 Reference value :  2.60071e-05
 Reference value :  2.60079e-05
 Reference value :  2.60088e-05
 Reference value :  2.60107e-05
 Reference value :  2.60118e-05
 Reference value :  2.60186e-05
 Reference value :  2.60335e-05
 Reference value :  2.60793e-05
 Reference value :  2.62625e-05
 Reference value :  2.65068e-05
 Reference value :  2.70005e-05
 Reference value :  2.70007e-05
 Reference value :  2.70009e-05
 Reference value :  2.70010e-05
 Reference value :  2.70011e-05
 Reference value :  2.70012e-05
 Reference value :  2.70014e-05
 Reference value :  2.70021e-05
 Reference value :  2.70026e-05
 Reference value :  2.70038e-05
 Reference value :  2.70045e-05
 Reference value :  2.70050e-05
 Reference value :  2.70056e-05
 Reference value :  2.70071e-05
 Reference value :  2.70079e-05
 Reference value :  2.70088e-05
 Reference value :  2.70097e-05
 Reference value :  2.70127e-05
 Reference value :  2.70180e-05
 Reference value :  2.70233e-05
 Reference value :  2.70437e-05
 Reference value :  2.70941e-05
 Reference value :  2.74569e-05
 Reference value :  2.80000e-05
 Reference value :  2.80001e-05
 Reference value :  2.80005e-05
 Reference value :  2.80006e-05
 Reference value :  2.80010e-05
 Reference value :  2.80015e-05
 Reference value :  2.80025e-05
 Reference value :  2.80035e-05
 Reference value :  2.80041e-05
 Reference value :  2.80046e-05
 Reference value :  2.80052e-05
 Reference value :  2.80056e-05
 Reference value :  2.80062e-05
 Reference value :  2.80076e-05
 Reference value :  2.80085e-05
 Reference value :  2.80107e-05
 Reference value :  2.80117e-05
 Reference value :  2.80137e-05
 Reference value :  2.80156e-05
 Reference value :  2.80190e-05
 Reference value :  2.80219e-05
 Reference value :  2.80236e-05
 Reference value :  2.80301e-05
 Reference value :  2.80395e-05
 Reference value :  2.80724e-05
 Reference value :  2.82442e-05
 Reference value :  2.87955e-05
 Reference value :  2.90007e-05
 Reference value :  2.90010e-05
 Reference value :  2.90011e-05
 Reference value :  2.90014e-05
 Reference value :  2.90021e-05
 Reference value :  2.90038e-05
 Reference value :  2.90050e-05
 Reference value :  2.90063e-05
 Reference value :  2.90079e-05
 Reference value :  2.90151e-05
 Reference value :  2.90565e-05
 Reference value :  2.97543e-05
 Reference value :  3.00001e-05
 Reference value :  3.00005e-05
 Reference value :  3.00015e-05
 Reference value :  3.00025e-05
 Reference value :  3.00035e-05
 Reference value :  3.00047e-05
 Reference value :  3.00062e-05
 Reference value :  3.00068e-05
 Reference value :  3.00086e-05
 Reference value :  3.00115e-05
 Reference value :  3.00267e-05
 Reference value :  3.01230e-05
 Reference value :  3.08835e-05
 Reference value :  3.10008e-05
 Reference value :  3.10010e-05
 Reference value :  3.10012e-05
 Reference value :  3.10017e-05
 Reference value :  3.10031e-05
 Reference value :  3.10045e-05
 Reference value :  3.10056e-05
 Reference value :  3.10071e-05
 Reference value :  3.10095e-05
 Reference value :  3.10213e-05
 Reference value :  3.11019e-05
 Reference value :  3.13734e-05
 Reference value :  3.20000e-05
 Reference value :  3.20003e-05
 Reference value :  3.20005e-05
 Reference value :  3.20006e-05
 Reference value :  3.20015e-05
 Reference value :  3.20020e-05
 Reference value :  3.20025e-05
 Reference value :  3.20035e-05
 Reference value :  3.20046e-05
 Reference value :  3.20056e-05
 Reference value :  3.20076e-05
 Reference value :  3.20101e-05
 Reference value :  3.20173e-05
 Reference value :  3.20695e-05
 Reference value :  3.24787e-05
 Reference value :  3.30006e-05
 Reference value :  3.30010e-05
 Reference value :  3.30015e-05
 Reference value :  3.30027e-05
 Reference value :  3.30046e-05
 Reference value :  3.30075e-05
 Reference value :  3.30134e-05
 Reference value :  3.30779e-05
 Reference value :  3.35597e-05
No. of Data Rows : 1272
ngspice-44 done
