
Note: Compatibility modes selected: hs a


Circuit: ** sch_path: /home/samantha/cace/sar-adc-using-sky130-pdk/runs/run_2025-09-04_00-11-03/parameters/sampling_rate/run_07/sampling_rate.sch

option SCALE: Scale is set to 1e-06 for instance and model parameters
option SCALE: Scale is set to 1e-06 for instance and model parameters
option SCALE: Scale is set to 1e-06 for instance and model parameters
option SCALE: Scale is set to 1e-06 for instance and model parameters
Doing analysis at TEMP = 27.000000 and TNOM = 27.000000

Using KLU as Direct Linear Solver
Operating point simulation skipped by 'uic',
  now using transient initial conditions.
 Reference value :  1.00000e-12
 Reference value :  1.02800e-12
 Reference value :  1.08400e-12
 Reference value :  1.19600e-12
 Reference value :  1.42000e-12
 Reference value :  1.70698e-12
 Reference value :  2.28093e-12
 Reference value :  3.29221e-12
 Reference value :  4.50070e-12
 Reference value :  6.49617e-12
 Reference value :  9.48151e-12
 Reference value :  1.39311e-11
 Reference value :  2.00109e-11
 Reference value :  3.21706e-11
 Reference value :  5.64899e-11
 Reference value :  1.00000e-10
 Reference value :  1.04864e-10
 Reference value :  1.14592e-10
 Reference value :  1.34047e-10
 Reference value :  1.72958e-10
 Reference value :  2.50780e-10
 Reference value :  4.06424e-10
 Reference value :  6.63359e-10
 Reference value :  9.68817e-10
 Reference value :  1.38152e-09
 Reference value :  1.92773e-09
 Reference value :  2.50344e-09
 Reference value :  3.31050e-09
 Reference value :  4.19666e-09
 Reference value :  5.14665e-09
 Reference value :  6.01607e-09
 Reference value :  7.10715e-09
 Reference value :  8.28582e-09
 Reference value :  9.03709e-09
 Reference value :  9.80800e-09
 Reference value :  1.08066e-08
 Reference value :  1.18361e-08
 Reference value :  1.32028e-08
 Reference value :  1.44908e-08
 Reference value :  1.54014e-08
 Reference value :  1.62545e-08
 Reference value :  1.70977e-08
 Reference value :  1.80598e-08
 Reference value :  1.95028e-08
 Reference value :  2.13305e-08
 Reference value :  2.42894e-08
 Reference value :  2.73642e-08
 Reference value :  3.06149e-08
 Reference value :  3.55914e-08
 Reference value :  4.00896e-08
 Reference value :  4.82267e-08
 Reference value :  6.06162e-08
 Reference value :  7.77695e-08
 Reference value :  1.09540e-07
 Reference value :  1.58056e-07
 Reference value :  2.50100e-07
 Reference value :  2.50110e-07
 Reference value :  2.50130e-07
 Reference value :  2.50170e-07
 Reference value :  2.50200e-07
 Reference value :  2.50208e-07
 Reference value :  2.50223e-07
 Reference value :  2.50253e-07
 Reference value :  2.50308e-07
 Reference value :  2.50379e-07
 Reference value :  2.50522e-07
 Reference value :  2.50653e-07
 Reference value :  2.50915e-07
 Reference value :  2.51227e-07
 Reference value :  2.51636e-07
 Reference value :  2.52082e-07
 Reference value :  2.52678e-07
 Reference value :  2.53418e-07
 Reference value :  2.53967e-07
 Reference value :  2.54619e-07
 Reference value :  2.55234e-07
 Reference value :  2.55885e-07
 Reference value :  2.56689e-07
 Reference value :  2.57830e-07
 Reference value :  2.59100e-07
 Reference value :  2.61134e-07
 Reference value :  2.63918e-07
 Reference value :  2.69486e-07
 Reference value :  2.80149e-07
 Reference value :  2.98766e-07
 Reference value :  3.35999e-07
 Reference value :  3.66200e-07
 Reference value :  3.98592e-07
 Reference value :  4.17909e-07
 Reference value :  4.31832e-07
 Reference value :  4.40263e-07
 Reference value :  4.50081e-07
 Reference value :  4.60667e-07
 Reference value :  4.72015e-07
 Reference value :  4.88163e-07
 Reference value :  5.00000e-07
 Reference value :  5.00010e-07
 Reference value :  5.00030e-07
 Reference value :  5.00070e-07
 Reference value :  5.00100e-07
 Reference value :  5.00108e-07
 Reference value :  5.00124e-07
 Reference value :  5.00155e-07
 Reference value :  5.00218e-07
 Reference value :  5.00335e-07
 Reference value :  5.00494e-07
 Reference value :  5.00813e-07
 Reference value :  5.01321e-07
 Reference value :  5.01781e-07
 Reference value :  5.02211e-07
 Reference value :  5.02686e-07
 Reference value :  5.03306e-07
 Reference value :  5.03957e-07
 Reference value :  5.04806e-07
 Reference value :  5.05648e-07
 Reference value :  5.06713e-07
 Reference value :  5.08200e-07
 Reference value :  5.09375e-07
 Reference value :  5.10615e-07
 Reference value :  5.11855e-07
 Reference value :  5.13267e-07
 Reference value :  5.14982e-07
 Reference value :  5.16708e-07
 Reference value :  5.18484e-07
 Reference value :  5.20799e-07
 Reference value :  5.23948e-07
 Reference value :  5.28831e-07
 Reference value :  5.35307e-07
 Reference value :  5.46538e-07
 Reference value :  5.65680e-07
 Reference value :  6.00223e-07
 Reference value :  6.65176e-07
 Reference value :  7.50100e-07
 Reference value :  7.50110e-07
 Reference value :  7.50130e-07
 Reference value :  7.50170e-07
 Reference value :  7.50200e-07
 Reference value :  7.50208e-07
 Reference value :  7.50223e-07
 Reference value :  7.50254e-07
 Reference value :  7.50316e-07
 Reference value :  7.50440e-07
 Reference value :  7.50571e-07
 Reference value :  7.50795e-07
 Reference value :  7.51193e-07
 Reference value :  7.51624e-07
 Reference value :  7.52099e-07
 Reference value :  7.52670e-07
 Reference value :  7.53410e-07
 Reference value :  7.53933e-07
 Reference value :  7.54522e-07
 Reference value :  7.55073e-07
 Reference value :  7.55687e-07
 Reference value :  7.56508e-07
 Reference value :  7.57377e-07
 Reference value :  7.58277e-07
 Reference value :  7.59228e-07
 Reference value :  7.60566e-07
 Reference value :  7.61861e-07
 Reference value :  7.64452e-07
 Reference value :  7.67555e-07
 Reference value :  7.73762e-07
 Reference value :  7.84239e-07
 Reference value :  8.01246e-07
 Reference value :  8.35260e-07
 Reference value :  9.03289e-07
 Reference value :  1.00000e-06
 Reference value :  1.00001e-06
 Reference value :  1.00003e-06
 Reference value :  1.00007e-06
 Reference value :  1.00010e-06
 Reference value :  1.00012e-06
 Reference value :  1.00022e-06
 Reference value :  1.00049e-06
 Reference value :  1.00081e-06
 Reference value :  1.00127e-06
 Reference value :  1.00174e-06
 Reference value :  1.00218e-06
 Reference value :  1.00267e-06
 Reference value :  1.00333e-06
 Reference value :  1.00393e-06
 Reference value :  1.00444e-06
 Reference value :  1.00502e-06
 Reference value :  1.00556e-06
 Reference value :  1.00618e-06
 Reference value :  1.00682e-06
 Reference value :  1.00763e-06
 Reference value :  1.00860e-06
 Reference value :  1.00977e-06
 Reference value :  1.01079e-06
 Reference value :  1.01183e-06
 Reference value :  1.01300e-06
 Reference value :  1.01383e-06
 Reference value :  1.01461e-06
 Reference value :  1.01560e-06
 Reference value :  1.01661e-06
 Reference value :  1.01758e-06
 Reference value :  1.01881e-06
 Reference value :  1.02009e-06
 Reference value :  1.02190e-06
 Reference value :  1.02409e-06
 Reference value :  1.03721e-06
 Reference value :  1.05120e-06
 Reference value :  1.07917e-06
 Reference value :  1.10807e-06
 Reference value :  1.13060e-06
 Reference value :  1.14790e-06
 Reference value :  1.16382e-06
 Reference value :  1.17978e-06
 Reference value :  1.19436e-06
 Reference value :  1.23794e-06
 Reference value :  1.25010e-06
 Reference value :  1.25011e-06
 Reference value :  1.25013e-06
 Reference value :  1.25017e-06
 Reference value :  1.25020e-06
 Reference value :  1.25021e-06
 Reference value :  1.25022e-06
 Reference value :  1.25026e-06
 Reference value :  1.25032e-06
 Reference value :  1.25044e-06
 Reference value :  1.25058e-06
 Reference value :  1.25080e-06
 Reference value :  1.25122e-06
 Reference value :  1.25164e-06
 Reference value :  1.25212e-06
 Reference value :  1.25269e-06
 Reference value :  1.25347e-06
 Reference value :  1.25400e-06
 Reference value :  1.25460e-06
 Reference value :  1.25524e-06
 Reference value :  1.25592e-06
 Reference value :  1.25683e-06
 Reference value :  1.25825e-06
 Reference value :  1.25986e-06
 Reference value :  1.26268e-06
 Reference value :  1.26727e-06
 Reference value :  1.27645e-06
 Reference value :  1.29481e-06
 Reference value :  1.40497e-06
 Reference value :  1.50000e-06
 Reference value :  1.50001e-06
 Reference value :  1.50003e-06
 Reference value :  1.50007e-06
 Reference value :  1.50010e-06
 Reference value :  1.50011e-06
 Reference value :  1.50012e-06
 Reference value :  1.50015e-06
 Reference value :  1.50022e-06
 Reference value :  1.50033e-06
 Reference value :  1.50049e-06
 Reference value :  1.50081e-06
 Reference value :  1.50127e-06
 Reference value :  1.50174e-06
 Reference value :  1.50218e-06
 Reference value :  1.50267e-06
 Reference value :  1.50322e-06
 Reference value :  1.50380e-06
 Reference value :  1.50440e-06
 Reference value :  1.50506e-06
 Reference value :  1.50614e-06
 Reference value :  1.50716e-06
 Reference value :  1.50815e-06
 Reference value :  1.50917e-06
 Reference value :  1.51014e-06
 Reference value :  1.51123e-06
 Reference value :  1.51248e-06
 Reference value :  1.51498e-06
 Reference value :  1.51892e-06
 Reference value :  1.52651e-06
 Reference value :  1.54086e-06
 Reference value :  1.61658e-06
 Reference value :  1.75010e-06
 Reference value :  1.75011e-06
 Reference value :  1.75013e-06
 Reference value :  1.75017e-06
 Reference value :  1.75020e-06
 Reference value :  1.75021e-06
 Reference value :  1.75022e-06
 Reference value :  1.75026e-06
 Reference value :  1.75032e-06
 Reference value :  1.75044e-06
 Reference value :  1.75058e-06
 Reference value :  1.75080e-06
 Reference value :  1.75122e-06
 Reference value :  1.75164e-06
 Reference value :  1.75212e-06
 Reference value :  1.75269e-06
 Reference value :  1.75347e-06
 Reference value :  1.75399e-06
 Reference value :  1.75459e-06
 Reference value :  1.75516e-06
 Reference value :  1.75578e-06
 Reference value :  1.75662e-06
 Reference value :  1.75753e-06
 Reference value :  1.75924e-06
 Reference value :  1.76151e-06
 Reference value :  1.76549e-06
 Reference value :  1.77347e-06
 Reference value :  1.78942e-06
 Reference value :  1.82132e-06
 Reference value :  1.88511e-06
 Reference value :  2.00000e-06
 Reference value :  2.00001e-06
 Reference value :  2.00003e-06
 Reference value :  2.00007e-06
 Reference value :  2.00010e-06
 Reference value :  2.00011e-06
 Reference value :  2.00012e-06
 Reference value :  2.00015e-06
 Reference value :  2.00022e-06
 Reference value :  2.00033e-06
 Reference value :  2.00049e-06
 Reference value :  2.00081e-06
 Reference value :  2.00127e-06
 Reference value :  2.00174e-06
 Reference value :  2.00218e-06
 Reference value :  2.00267e-06
 Reference value :  2.00333e-06
 Reference value :  2.00392e-06
 Reference value :  2.00443e-06
 Reference value :  2.00501e-06
 Reference value :  2.00556e-06
 Reference value :  2.00619e-06
 Reference value :  2.00683e-06
 Reference value :  2.00764e-06
 Reference value :  2.00867e-06
 Reference value :  2.01006e-06
 Reference value :  2.01151e-06
 Reference value :  2.01276e-06
 Reference value :  2.01380e-06
 Reference value :  2.01480e-06
 Reference value :  2.01587e-06
 Reference value :  2.01694e-06
 Reference value :  2.01804e-06
 Reference value :  2.01925e-06
 Reference value :  2.02080e-06
 Reference value :  2.02252e-06
 Reference value :  2.03157e-06
 Reference value :  2.04156e-06
 Reference value :  2.06143e-06
 Reference value :  2.08610e-06
 Reference value :  2.12096e-06
 Reference value :  2.18842e-06
 Reference value :  2.25010e-06
 Reference value :  2.25011e-06
 Reference value :  2.25013e-06
 Reference value :  2.25017e-06
 Reference value :  2.25020e-06
 Reference value :  2.25021e-06
 Reference value :  2.25022e-06
 Reference value :  2.25025e-06
 Reference value :  2.25032e-06
 Reference value :  2.25044e-06
 Reference value :  2.25057e-06
 Reference value :  2.25080e-06
 Reference value :  2.25119e-06
 Reference value :  2.25162e-06
 Reference value :  2.25210e-06
 Reference value :  2.25267e-06
 Reference value :  2.25342e-06
 Reference value :  2.25395e-06
 Reference value :  2.25455e-06
 Reference value :  2.25515e-06
 Reference value :  2.25580e-06
 Reference value :  2.25674e-06
 Reference value :  2.25796e-06
 Reference value :  2.25953e-06
 Reference value :  2.26212e-06
 Reference value :  2.26635e-06
 Reference value :  2.27481e-06
 Reference value :  2.29172e-06
 Reference value :  2.32555e-06
 Reference value :  2.39063e-06
 Reference value :  2.49230e-06
 Reference value :  2.50001e-06
 Reference value :  2.50003e-06
 Reference value :  2.50007e-06
 Reference value :  2.50010e-06
 Reference value :  2.50011e-06
 Reference value :  2.50012e-06
 Reference value :  2.50015e-06
 Reference value :  2.50022e-06
 Reference value :  2.50033e-06
 Reference value :  2.50049e-06
 Reference value :  2.50081e-06
 Reference value :  2.50127e-06
 Reference value :  2.50174e-06
 Reference value :  2.50217e-06
 Reference value :  2.50266e-06
 Reference value :  2.50322e-06
 Reference value :  2.50381e-06
 Reference value :  2.50441e-06
 Reference value :  2.50507e-06
 Reference value :  2.50615e-06
 Reference value :  2.50718e-06
 Reference value :  2.50831e-06
 Reference value :  2.50933e-06
 Reference value :  2.51038e-06
 Reference value :  2.51155e-06
 Reference value :  2.51288e-06
 Reference value :  2.51554e-06
 Reference value :  2.52656e-06
 Reference value :  2.56287e-06
 Reference value :  2.68816e-06
 Reference value :  2.75011e-06
 Reference value :  2.75013e-06
 Reference value :  2.75017e-06
 Reference value :  2.75020e-06
 Reference value :  2.75021e-06
 Reference value :  2.75026e-06
 Reference value :  2.75032e-06
 Reference value :  2.75044e-06
 Reference value :  2.75058e-06
 Reference value :  2.75122e-06
 Reference value :  2.75164e-06
 Reference value :  2.75212e-06
 Reference value :  2.75269e-06
 Reference value :  2.75347e-06
 Reference value :  2.75399e-06
 Reference value :  2.75459e-06
 Reference value :  2.75515e-06
 Reference value :  2.75578e-06
 Reference value :  2.75662e-06
 Reference value :  2.75922e-06
 Reference value :  2.76546e-06
 Reference value :  2.78924e-06
 Reference value :  2.88439e-06
 Reference value :  3.00001e-06
 Reference value :  3.00007e-06
 Reference value :  3.00010e-06
 Reference value :  3.00012e-06
 Reference value :  3.00015e-06
 Reference value :  3.00022e-06
 Reference value :  3.00033e-06
 Reference value :  3.00049e-06
 Reference value :  3.00081e-06
 Reference value :  3.00127e-06
 Reference value :  3.00174e-06
 Reference value :  3.00218e-06
 Reference value :  3.00267e-06
 Reference value :  3.00332e-06
 Reference value :  3.00392e-06
 Reference value :  3.00443e-06
 Reference value :  3.00501e-06
 Reference value :  3.00556e-06
 Reference value :  3.00618e-06
 Reference value :  3.00764e-06
 Reference value :  3.00867e-06
 Reference value :  3.01006e-06
 Reference value :  3.01151e-06
 Reference value :  3.01275e-06
 Reference value :  3.01379e-06
 Reference value :  3.01479e-06
 Reference value :  3.01587e-06
 Reference value :  3.01693e-06
 Reference value :  3.01804e-06
 Reference value :  3.01925e-06
 Reference value :  3.02251e-06
 Reference value :  3.02575e-06
 Reference value :  3.02921e-06
 Reference value :  3.03286e-06
 Reference value :  3.03680e-06
 Reference value :  3.03940e-06
 Reference value :  3.04287e-06
 Reference value :  3.04565e-06
 Reference value :  3.04856e-06
 Reference value :  3.05159e-06
 Reference value :  3.06010e-06
 Reference value :  3.07092e-06
 Reference value :  3.08569e-06
 Reference value :  3.12776e-06
 Reference value :  3.25010e-06
 Reference value :  3.25011e-06
 Reference value :  3.25017e-06
 Reference value :  3.25021e-06
 Reference value :  3.25026e-06
 Reference value :  3.25044e-06
 Reference value :  3.25058e-06
 Reference value :  3.25080e-06
 Reference value :  3.25122e-06
 Reference value :  3.25164e-06
 Reference value :  3.25212e-06
 Reference value :  3.25269e-06
 Reference value :  3.25347e-06
 Reference value :  3.25397e-06
 Reference value :  3.25455e-06
 Reference value :  3.25532e-06
 Reference value :  3.25608e-06
 Reference value :  3.25698e-06
 Reference value :  3.25852e-06
 Reference value :  3.26321e-06
 Reference value :  3.27872e-06
 Reference value :  3.34076e-06
 Reference value :  3.50000e-06
 Reference value :  3.50001e-06
 Reference value :  3.50003e-06
 Reference value :  3.50007e-06
 Reference value :  3.50010e-06
 Reference value :  3.50012e-06
 Reference value :  3.50022e-06
 Reference value :  3.50033e-06
 Reference value :  3.50049e-06
 Reference value :  3.50081e-06
 Reference value :  3.50132e-06
 Reference value :  3.50178e-06
 Reference value :  3.50220e-06
 Reference value :  3.50328e-06
 Reference value :  3.50394e-06
 Reference value :  3.50469e-06
 Reference value :  3.50547e-06
 Reference value :  3.50654e-06
 Reference value :  3.50734e-06
 Reference value :  3.50822e-06
 Reference value :  3.50908e-06
 Reference value :  3.51005e-06
 Reference value :  3.51115e-06
 Reference value :  3.51485e-06
 Reference value :  3.52497e-06
 Reference value :  3.55602e-06
 Reference value :  3.67315e-06
 Reference value :  3.75011e-06
 Reference value :  3.75013e-06
 Reference value :  3.75017e-06
 Reference value :  3.75020e-06
 Reference value :  3.75022e-06
 Reference value :  3.75032e-06
 Reference value :  3.75058e-06
 Reference value :  3.75122e-06
 Reference value :  3.75164e-06
 Reference value :  3.75212e-06
 Reference value :  3.75269e-06
 Reference value :  3.75346e-06
 Reference value :  3.75398e-06
 Reference value :  3.75457e-06
 Reference value :  3.75513e-06
 Reference value :  3.75658e-06
 Reference value :  3.75839e-06
 Reference value :  3.76074e-06
 Reference value :  3.76454e-06
 Reference value :  3.77454e-06
 Reference value :  3.80569e-06
 Reference value :  3.92376e-06
 Reference value :  4.00001e-06
 Reference value :  4.00007e-06
 Reference value :  4.00011e-06
 Reference value :  4.00015e-06
 Reference value :  4.00022e-06
 Reference value :  4.00049e-06
 Reference value :  4.00127e-06
 Reference value :  4.00174e-06
 Reference value :  4.00218e-06
 Reference value :  4.00332e-06
 Reference value :  4.00393e-06
 Reference value :  4.00442e-06
 Reference value :  4.00501e-06
 Reference value :  4.00556e-06
 Reference value :  4.00617e-06
 Reference value :  4.00681e-06
 Reference value :  4.00763e-06
 Reference value :  4.00858e-06
 Reference value :  4.00976e-06
 Reference value :  4.01078e-06
 Reference value :  4.01182e-06
 Reference value :  4.01298e-06
 Reference value :  4.01382e-06
 Reference value :  4.01461e-06
 Reference value :  4.01571e-06
 Reference value :  4.01670e-06
 Reference value :  4.01774e-06
 Reference value :  4.01896e-06
 Reference value :  4.02025e-06
 Reference value :  4.02211e-06
 Reference value :  4.02933e-06
 Reference value :  4.03722e-06
 Reference value :  4.04441e-06
 Reference value :  4.05151e-06
 Reference value :  4.05792e-06
 Reference value :  4.06130e-06
 Reference value :  4.06502e-06
 Reference value :  4.06894e-06
 Reference value :  4.07329e-06
 Reference value :  4.08134e-06
 Reference value :  4.09048e-06
 Reference value :  4.10238e-06
 Reference value :  4.11435e-06
 Reference value :  4.12580e-06
 Reference value :  4.13779e-06
 Reference value :  4.14696e-06
 Reference value :  4.16332e-06
 Reference value :  4.18935e-06
 Reference value :  4.23738e-06
 Reference value :  4.25011e-06
 Reference value :  4.25013e-06
 Reference value :  4.25020e-06
 Reference value :  4.25022e-06
 Reference value :  4.25025e-06
 Reference value :  4.25038e-06
 Reference value :  4.25069e-06
 Reference value :  4.25094e-06
 Reference value :  4.25133e-06
 Reference value :  4.25178e-06
 Reference value :  4.25292e-06
 Reference value :  4.25375e-06
 Reference value :  4.25430e-06
 Reference value :  4.25564e-06
 Reference value :  4.25739e-06
 Reference value :  4.26113e-06
 Reference value :  4.27200e-06
 Reference value :  4.30444e-06
 Reference value :  4.40471e-06
 Reference value :  4.50001e-06
 Reference value :  4.50007e-06
 Reference value :  4.50011e-06
 Reference value :  4.50012e-06
 Reference value :  4.50022e-06
 Reference value :  4.50034e-06
 Reference value :  4.50059e-06
 Reference value :  4.50095e-06
 Reference value :  4.50158e-06
 Reference value :  4.50216e-06
 Reference value :  4.50263e-06
 Reference value :  4.50317e-06
 Reference value :  4.50375e-06
 Reference value :  4.50440e-06
 Reference value :  4.50512e-06
 Reference value :  4.50603e-06
 Reference value :  4.50709e-06
 Reference value :  4.50797e-06
 Reference value :  4.50892e-06
 Reference value :  4.50991e-06
 Reference value :  4.51096e-06
 Reference value :  4.51420e-06
 Reference value :  4.52298e-06
 Reference value :  4.55120e-06
 Reference value :  4.66338e-06
 Reference value :  4.75011e-06
 Reference value :  4.75013e-06
 Reference value :  4.75020e-06
 Reference value :  4.75022e-06
 Reference value :  4.75025e-06
 Reference value :  4.75038e-06
 Reference value :  4.75051e-06
 Reference value :  4.75092e-06
 Reference value :  4.75132e-06
 Reference value :  4.75176e-06
 Reference value :  4.75224e-06
 Reference value :  4.75289e-06
 Reference value :  4.75377e-06
 Reference value :  4.75433e-06
 Reference value :  4.75497e-06
 Reference value :  4.75565e-06
 Reference value :  4.75636e-06
 Reference value :  4.75718e-06
 Reference value :  4.75814e-06
 Reference value :  4.75927e-06
 Reference value :  4.76189e-06
 Reference value :  4.76681e-06
 Reference value :  4.78121e-06
 Reference value :  4.82379e-06
 Reference value :  4.95022e-06
 Reference value :  5.00001e-06
 Reference value :  5.00007e-06
 Reference value :  5.00011e-06
 Reference value :  5.00015e-06
 Reference value :  5.00034e-06
 Reference value :  5.00059e-06
 Reference value :  5.00095e-06
 Reference value :  5.00158e-06
 Reference value :  5.00216e-06
 Reference value :  5.00265e-06
 Reference value :  5.00321e-06
 Reference value :  5.00378e-06
 Reference value :  5.00443e-06
 Reference value :  5.00494e-06
 Reference value :  5.00552e-06
 Reference value :  5.00605e-06
 Reference value :  5.00665e-06
 Reference value :  5.00835e-06
 Reference value :  5.00962e-06
 Reference value :  5.01053e-06
 Reference value :  5.01152e-06
 Reference value :  5.01267e-06
 Reference value :  5.01372e-06
 Reference value :  5.01470e-06
 Reference value :  5.01578e-06
 Reference value :  5.01688e-06
 Reference value :  5.01798e-06
 Reference value :  5.01934e-06
 Reference value :  5.02265e-06
 Reference value :  5.02560e-06
 Reference value :  5.03171e-06
 Reference value :  5.03457e-06
 Reference value :  5.03673e-06
 Reference value :  5.04099e-06
 Reference value :  5.04738e-06
 Reference value :  5.06031e-06
 Reference value :  5.09088e-06
 Reference value :  5.16912e-06
 Reference value :  5.22754e-06
 Reference value :  5.25010e-06
 Reference value :  5.25011e-06
 Reference value :  5.25013e-06
 Reference value :  5.25020e-06
 Reference value :  5.25022e-06
 Reference value :  5.25032e-06
 Reference value :  5.25038e-06
 Reference value :  5.25067e-06
 Reference value :  5.25129e-06
 Reference value :  5.25175e-06
 Reference value :  5.25221e-06
 Reference value :  5.25372e-06
 Reference value :  5.25428e-06
 Reference value :  5.25491e-06
 Reference value :  5.25565e-06
 Reference value :  5.25739e-06
 Reference value :  5.26114e-06
 Reference value :  5.26488e-06
 Reference value :  5.28346e-06
 Reference value :  5.29794e-06
 Reference value :  5.33961e-06
 Reference value :  5.46422e-06
 Reference value :  5.50001e-06
 Reference value :  5.50007e-06
 Reference value :  5.50011e-06
 Reference value :  5.50015e-06
 Reference value :  5.50022e-06
 Reference value :  5.50034e-06
 Reference value :  5.50059e-06
 Reference value :  5.50095e-06
 Reference value :  5.50158e-06
 Reference value :  5.50216e-06
 Reference value :  5.50263e-06
 Reference value :  5.50317e-06
 Reference value :  5.50376e-06
 Reference value :  5.50440e-06
 Reference value :  5.50512e-06
 Reference value :  5.50603e-06
 Reference value :  5.50708e-06
 Reference value :  5.50797e-06
 Reference value :  5.50891e-06
 Reference value :  5.50990e-06
 Reference value :  5.51095e-06
 Reference value :  5.51417e-06
 Reference value :  5.52282e-06
 Reference value :  5.55030e-06
 Reference value :  5.65961e-06
 Reference value :  5.75011e-06
 Reference value :  5.75017e-06
 Reference value :  5.75021e-06
 Reference value :  5.75025e-06
 Reference value :  5.75038e-06
 Reference value :  5.75068e-06
 Reference value :  5.75092e-06
 Reference value :  5.75132e-06
 Reference value :  5.75176e-06
 Reference value :  5.75224e-06
 Reference value :  5.75289e-06
 Reference value :  5.75377e-06
 Reference value :  5.75433e-06
 Reference value :  5.75497e-06
 Reference value :  5.75565e-06
 Reference value :  5.75635e-06
 Reference value :  5.75717e-06
 Reference value :  5.75813e-06
 Reference value :  5.75927e-06
 Reference value :  5.76031e-06
 Reference value :  5.76189e-06
 Reference value :  5.76680e-06
 Reference value :  5.78124e-06
 Reference value :  5.82407e-06
 Reference value :  5.94959e-06
 Reference value :  6.00001e-06
 Reference value :  6.00003e-06
 Reference value :  6.00010e-06
 Reference value :  6.00012e-06
 Reference value :  6.00022e-06
 Reference value :  6.00059e-06
 Reference value :  6.00095e-06
 Reference value :  6.00158e-06
 Reference value :  6.00216e-06
 Reference value :  6.00265e-06
 Reference value :  6.00321e-06
 Reference value :  6.00378e-06
 Reference value :  6.00443e-06
 Reference value :  6.00494e-06
 Reference value :  6.00605e-06
 Reference value :  6.00665e-06
 Reference value :  6.00835e-06
 Reference value :  6.00962e-06
 Reference value :  6.01053e-06
 Reference value :  6.01267e-06
 Reference value :  6.01371e-06
 Reference value :  6.01467e-06
 Reference value :  6.01576e-06
 Reference value :  6.01683e-06
 Reference value :  6.01792e-06
 Reference value :  6.01934e-06
 Reference value :  6.02064e-06
 Reference value :  6.02234e-06
 Reference value :  6.02346e-06
 Reference value :  6.02459e-06
 Reference value :  6.02594e-06
 Reference value :  6.02875e-06
 Reference value :  6.03468e-06
 Reference value :  6.04861e-06
 Reference value :  6.09131e-06
 Reference value :  6.13834e-06
 Reference value :  6.25010e-06
 Reference value :  6.25013e-06
 Reference value :  6.25020e-06
 Reference value :  6.25021e-06
 Reference value :  6.25025e-06
 Reference value :  6.25038e-06
 Reference value :  6.25051e-06
 Reference value :  6.25066e-06
 Reference value :  6.25129e-06
 Reference value :  6.25173e-06
 Reference value :  6.25220e-06
 Reference value :  6.25283e-06
 Reference value :  6.25369e-06
 Reference value :  6.25427e-06
 Reference value :  6.25491e-06
 Reference value :  6.25576e-06
 Reference value :  6.25749e-06
 Reference value :  6.25903e-06
 Reference value :  6.26501e-06
 Reference value :  6.28386e-06
 Reference value :  6.30580e-06
 Reference value :  6.40993e-06
 Reference value :  6.50001e-06
 Reference value :  6.50007e-06
 Reference value :  6.50010e-06
 Reference value :  6.50011e-06
 Reference value :  6.50012e-06
 Reference value :  6.50015e-06
 Reference value :  6.50022e-06
 Reference value :  6.50034e-06
 Reference value :  6.50059e-06
 Reference value :  6.50095e-06
 Reference value :  6.50158e-06
 Reference value :  6.50216e-06
 Reference value :  6.50266e-06
 Reference value :  6.50321e-06
 Reference value :  6.50377e-06
 Reference value :  6.50439e-06
 Reference value :  6.50515e-06
 Reference value :  6.50593e-06
 Reference value :  6.50709e-06
 Reference value :  6.50798e-06
 Reference value :  6.50893e-06
 Reference value :  6.50993e-06
 Reference value :  6.51099e-06
 Reference value :  6.51427e-06
 Reference value :  6.52331e-06
 Reference value :  6.55324e-06
 Reference value :  6.67273e-06
 Reference value :  6.75011e-06
 Reference value :  6.75017e-06
 Reference value :  6.75021e-06
 Reference value :  6.75025e-06
 Reference value :  6.75038e-06
 Reference value :  6.75051e-06
 Reference value :  6.75068e-06
 Reference value :  6.75092e-06
 Reference value :  6.75132e-06
 Reference value :  6.75176e-06
 Reference value :  6.75224e-06
 Reference value :  6.75289e-06
 Reference value :  6.75376e-06
 Reference value :  6.75432e-06
 Reference value :  6.75497e-06
 Reference value :  6.75564e-06
 Reference value :  6.75634e-06
 Reference value :  6.75730e-06
 Reference value :  6.76035e-06
 Reference value :  6.76887e-06
 Reference value :  6.79578e-06
 Reference value :  6.88344e-06
 Reference value :  7.00000e-06
 Reference value :  7.00003e-06
 Reference value :  7.00010e-06
 Reference value :  7.00012e-06
 Reference value :  7.00022e-06
 Reference value :  7.00034e-06
 Reference value :  7.00059e-06
 Reference value :  7.00095e-06
 Reference value :  7.00158e-06
 Reference value :  7.00216e-06
 Reference value :  7.00265e-06
 Reference value :  7.00379e-06
 Reference value :  7.00445e-06
 Reference value :  7.00501e-06
 Reference value :  7.00563e-06
 Reference value :  7.00625e-06
 Reference value :  7.00780e-06
 Reference value :  7.00882e-06
 Reference value :  7.01024e-06
 Reference value :  7.01167e-06
 Reference value :  7.01297e-06
 Reference value :  7.01399e-06
 Reference value :  7.01496e-06
 Reference value :  7.01605e-06
 Reference value :  7.01710e-06
 Reference value :  7.01819e-06
 Reference value :  7.01938e-06
 Reference value :  7.02106e-06
 Reference value :  7.02609e-06
 Reference value :  7.03742e-06
 Reference value :  7.06922e-06
 Reference value :  7.13843e-06
 Reference value :  7.25010e-06
 Reference value :  7.25013e-06
 Reference value :  7.25017e-06
 Reference value :  7.25021e-06
 Reference value :  7.25025e-06
 Reference value :  7.25038e-06
 Reference value :  7.25051e-06
 Reference value :  7.25091e-06
 Reference value :  7.25129e-06
 Reference value :  7.25173e-06
 Reference value :  7.25220e-06
 Reference value :  7.25283e-06
 Reference value :  7.25369e-06
 Reference value :  7.25426e-06
 Reference value :  7.25490e-06
 Reference value :  7.25576e-06
 Reference value :  7.25750e-06
 Reference value :  7.26131e-06
 Reference value :  7.27247e-06
 Reference value :  7.30584e-06
 Reference value :  7.40965e-06
 Reference value :  7.50001e-06
 Reference value :  7.50007e-06
 Reference value :  7.50011e-06
 Reference value :  7.50015e-06
 Reference value :  7.50034e-06
 Reference value :  7.50095e-06
 Reference value :  7.50158e-06
 Reference value :  7.50216e-06
 Reference value :  7.50266e-06
 Reference value :  7.50321e-06
 Reference value :  7.50377e-06
 Reference value :  7.50439e-06
 Reference value :  7.50514e-06
 Reference value :  7.50591e-06
 Reference value :  7.50708e-06
 Reference value :  7.50796e-06
 Reference value :  7.50892e-06
 Reference value :  7.50990e-06
 Reference value :  7.51255e-06
 Reference value :  7.51750e-06
 Reference value :  7.53237e-06
 Reference value :  7.58831e-06
 Reference value :  7.75010e-06
 Reference value :  7.75013e-06
 Reference value :  7.75020e-06
 Reference value :  7.75022e-06
 Reference value :  7.75025e-06
 Reference value :  7.75031e-06
 Reference value :  7.75051e-06
 Reference value :  7.75092e-06
 Reference value :  7.75132e-06
 Reference value :  7.75176e-06
 Reference value :  7.75224e-06
 Reference value :  7.75289e-06
 Reference value :  7.75376e-06
 Reference value :  7.75432e-06
 Reference value :  7.75564e-06
 Reference value :  7.75634e-06
 Reference value :  7.75732e-06
 Reference value :  7.75835e-06
 Reference value :  7.76336e-06
 Reference value :  7.77899e-06
 Reference value :  7.82885e-06
 Reference value :  7.98934e-06
 Reference value :  8.00001e-06
 Reference value :  8.00007e-06
 Reference value :  8.00011e-06
 Reference value :  8.00015e-06
 Reference value :  8.00034e-06
 Reference value :  8.00095e-06
 Reference value :  8.00158e-06
 Reference value :  8.00265e-06
 Reference value :  8.00379e-06
 Reference value :  8.00445e-06
 Reference value :  8.00500e-06
 Reference value :  8.00562e-06
 Reference value :  8.00623e-06
 Reference value :  8.00778e-06
 Reference value :  8.00863e-06
 Reference value :  8.00951e-06
 Reference value :  8.01053e-06
 Reference value :  8.01395e-06
 Reference value :  8.02470e-06
 Reference value :  8.06196e-06
 Reference value :  8.20501e-06
 Reference value :  8.25011e-06
 Reference value :  8.25013e-06
 Reference value :  8.25017e-06
 Reference value :  8.25021e-06
 Reference value :  8.25026e-06
 Reference value :  8.25044e-06
 Reference value :  8.25057e-06
 Reference value :  8.25114e-06
 Reference value :  8.25154e-06
 Reference value :  8.25202e-06
 Reference value :  8.25258e-06
 Reference value :  8.25325e-06
 Reference value :  8.25421e-06
 Reference value :  8.25533e-06
 Reference value :  8.25638e-06
 Reference value :  8.25885e-06
 Reference value :  8.26353e-06
 Reference value :  8.28166e-06
 Reference value :  8.35418e-06
 Reference value :  8.50000e-06
 Reference value :  8.50003e-06
 Reference value :  8.50010e-06
 Reference value :  8.50012e-06
 Reference value :  8.50022e-06
 Reference value :  8.50059e-06
 Reference value :  8.50095e-06
 Reference value :  8.50159e-06
 Reference value :  8.50268e-06
 Reference value :  8.50392e-06
 Reference value :  8.50465e-06
 Reference value :  8.50536e-06
 Reference value :  8.50608e-06
 Reference value :  8.50766e-06
 Reference value :  8.51081e-06
 Reference value :  8.52008e-06
 Reference value :  8.52081e-06
 Reference value :  8.52470e-06
 Reference value :  8.52672e-06
 Reference value :  8.52889e-06
 Reference value :  8.53038e-06
 Reference value :  8.53183e-06
 Reference value :  8.53333e-06
 Reference value :  8.53460e-06
 Reference value :  8.53567e-06
 Reference value :  8.53682e-06
 Reference value :  8.53774e-06
 Reference value :  8.53992e-06
 Reference value :  8.54071e-06
 Reference value :  8.54163e-06
 Reference value :  8.54264e-06
 Reference value :  8.54382e-06
 Reference value :  8.54618e-06
 Reference value :  8.54872e-06
 Reference value :  8.55160e-06
 Reference value :  8.55534e-06
 Reference value :  8.55883e-06
 Reference value :  8.56539e-06
 Reference value :  8.57322e-06
 Reference value :  8.58659e-06
 Reference value :  8.60992e-06
 Reference value :  8.64419e-06
 Reference value :  8.67676e-06
 Reference value :  8.71394e-06
 Reference value :  8.75011e-06
 Reference value :  8.75013e-06
 Reference value :  8.75017e-06
 Reference value :  8.75020e-06
 Reference value :  8.75021e-06
 Reference value :  8.75022e-06
 Reference value :  8.75025e-06
 Reference value :  8.75032e-06
 Reference value :  8.75044e-06
 Reference value :  8.75057e-06
 Reference value :  8.75080e-06
 Reference value :  8.75120e-06
 Reference value :  8.75163e-06
 Reference value :  8.75211e-06
 Reference value :  8.75268e-06
 Reference value :  8.75342e-06
 Reference value :  8.75395e-06
 Reference value :  8.75454e-06
 Reference value :  8.75514e-06
 Reference value :  8.75579e-06
 Reference value :  8.75674e-06
 Reference value :  8.75797e-06
 Reference value :  8.76213e-06
 Reference value :  8.77472e-06
 Reference value :  8.79151e-06
 Reference value :  8.89226e-06
 Reference value :  8.98079e-06
 Reference value :  9.00000e-06
No. of Data Rows : 1347
ngspice-44 done
