
Note: Compatibility modes selected: hs a


Circuit: ** sch_path: /home/audrey/cace/sar-adc-using-sky130-pdk/runs/run_2025-09-09_19-46-46/parameters/power/run_3/power_consumption.sch

option SCALE: Scale is set to 1e-06 for instance and model parameters
option SCALE: Scale is set to 1e-06 for instance and model parameters
option SCALE: Scale is set to 1e-06 for instance and model parameters
option SCALE: Scale is set to 1e-06 for instance and model parameters
Doing analysis at TEMP = 27.000000 and TNOM = 27.000000

Using KLU as Direct Linear Solver
 Reference value :  0.00000e+00
 Reference value :  1.00000e-12
 Reference value :  2.00000e-12
 Reference value :  4.00000e-12
 Reference value :  8.00000e-12
 Reference value :  1.60000e-11
 Reference value :  3.20000e-11
 Reference value :  6.40000e-11
 Reference value :  1.00000e-10
 Reference value :  1.01503e-10
 Reference value :  1.04508e-10
 Reference value :  1.10520e-10
 Reference value :  1.22542e-10
 Reference value :  1.46587e-10
 Reference value :  1.94677e-10
 Reference value :  2.90857e-10
 Reference value :  4.51892e-10
 Reference value :  7.15637e-10
 Reference value :  1.18242e-09
 Reference value :  1.66402e-09
 Reference value :  2.37955e-09
 Reference value :  3.05397e-09
 Reference value :  3.78861e-09
 Reference value :  4.60731e-09
 Reference value :  5.50008e-09
 Reference value :  6.25113e-09
 Reference value :  7.08952e-09
 Reference value :  7.86943e-09
 Reference value :  8.71775e-09
 Reference value :  9.74943e-09
 Reference value :  1.08702e-08
 Reference value :  1.21922e-08
 Reference value :  1.35890e-08
 Reference value :  1.49313e-08
 Reference value :  1.64795e-08
 Reference value :  1.81296e-08
 Reference value :  1.94165e-08
 Reference value :  2.09012e-08
 Reference value :  2.22988e-08
 Reference value :  2.40173e-08
 Reference value :  2.59198e-08
 Reference value :  2.93070e-08
 Reference value :  3.18884e-08
 Reference value :  3.49438e-08
 Reference value :  3.86495e-08
 Reference value :  4.40533e-08
 Reference value :  5.08802e-08
 Reference value :  5.94739e-08
 Reference value :  6.95495e-08
 Reference value :  8.13806e-08
 Reference value :  9.62850e-08
 Reference value :  1.16475e-07
 Reference value :  1.43900e-07
 Reference value :  1.82447e-07
 Reference value :  2.37294e-07
 Reference value :  2.50100e-07
 Reference value :  2.50110e-07
 Reference value :  2.50130e-07
 Reference value :  2.50170e-07
 Reference value :  2.50200e-07
 Reference value :  2.50201e-07
 Reference value :  2.50202e-07
 Reference value :  2.50204e-07
 Reference value :  2.50208e-07
 Reference value :  2.50216e-07
 Reference value :  2.50233e-07
 Reference value :  2.50267e-07
 Reference value :  2.50335e-07
 Reference value :  2.50429e-07
 Reference value :  2.50615e-07
 Reference value :  2.50807e-07
 Reference value :  2.51149e-07
 Reference value :  2.51588e-07
 Reference value :  2.52221e-07
 Reference value :  2.52883e-07
 Reference value :  2.53723e-07
 Reference value :  2.54756e-07
 Reference value :  2.55786e-07
 Reference value :  2.56715e-07
 Reference value :  2.57694e-07
 Reference value :  2.58747e-07
 Reference value :  2.59848e-07
 Reference value :  2.61346e-07
 Reference value :  2.63802e-07
 Reference value :  2.66385e-07
 Reference value :  2.70714e-07
 Reference value :  2.76215e-07
 Reference value :  2.87217e-07
 Reference value :  3.09220e-07
 Reference value :  3.53226e-07
 Reference value :  4.41239e-07
 Reference value :  5.00000e-07
 Reference value :  5.00010e-07
 Reference value :  5.00030e-07
 Reference value :  5.00070e-07
 Reference value :  5.00100e-07
 Reference value :  5.00104e-07
 Reference value :  5.00113e-07
 Reference value :  5.00130e-07
 Reference value :  5.00164e-07
 Reference value :  5.00232e-07
 Reference value :  5.00369e-07
 Reference value :  5.00560e-07
 Reference value :  5.00942e-07
 Reference value :  5.01536e-07
 Reference value :  5.02163e-07
 Reference value :  5.02848e-07
 Reference value :  5.03666e-07
 Reference value :  5.04417e-07
 Reference value :  5.05332e-07
 Reference value :  5.06292e-07
 Reference value :  5.07279e-07
 Reference value :  5.08682e-07
 Reference value :  5.10096e-07
 Reference value :  5.12652e-07
 Reference value :  5.15594e-07
 Reference value :  5.17747e-07
 Reference value :  5.20200e-07
 Reference value :  5.22680e-07
 Reference value :  5.25219e-07
 Reference value :  5.28476e-07
 Reference value :  5.33041e-07
 Reference value :  5.39303e-07
 Reference value :  5.48714e-07
 Reference value :  5.67447e-07
 Reference value :  5.94896e-07
 Reference value :  6.46227e-07
 Reference value :  7.48399e-07
 Reference value :  7.50100e-07
 Reference value :  7.50110e-07
 Reference value :  7.50130e-07
 Reference value :  7.50170e-07
 Reference value :  7.50200e-07
 Reference value :  7.50201e-07
 Reference value :  7.50202e-07
 Reference value :  7.50205e-07
 Reference value :  7.50212e-07
 Reference value :  7.50224e-07
 Reference value :  7.50249e-07
 Reference value :  7.50298e-07
 Reference value :  7.50396e-07
 Reference value :  7.50594e-07
 Reference value :  7.50984e-07
 Reference value :  7.51569e-07
 Reference value :  7.52239e-07
 Reference value :  7.52985e-07
 Reference value :  7.53829e-07
 Reference value :  7.54922e-07
 Reference value :  7.55812e-07
 Reference value :  7.56869e-07
 Reference value :  7.57774e-07
 Reference value :  7.58755e-07
 Reference value :  7.59863e-07
 Reference value :  7.61109e-07
 Reference value :  7.63601e-07
 Reference value :  7.66398e-07
 Reference value :  7.70813e-07
 Reference value :  7.76714e-07
 Reference value :  7.88518e-07
 Reference value :  8.12124e-07
 Reference value :  8.59338e-07
 Reference value :  9.53765e-07
 Reference value :  1.00000e-06
 Reference value :  1.00001e-06
 Reference value :  1.00003e-06
 Reference value :  1.00007e-06
 Reference value :  1.00010e-06
 Reference value :  1.00010e-06
 Reference value :  1.00011e-06
 Reference value :  1.00013e-06
 Reference value :  1.00016e-06
 Reference value :  1.00023e-06
 Reference value :  1.00037e-06
 Reference value :  1.00056e-06
 Reference value :  1.00094e-06
 Reference value :  1.00153e-06
 Reference value :  1.00216e-06
 Reference value :  1.00285e-06
 Reference value :  1.00356e-06
 Reference value :  1.00432e-06
 Reference value :  1.00516e-06
 Reference value :  1.00607e-06
 Reference value :  1.00701e-06
 Reference value :  1.00794e-06
 Reference value :  1.00904e-06
 Reference value :  1.01001e-06
 Reference value :  1.01109e-06
 Reference value :  1.01260e-06
 Reference value :  1.01428e-06
 Reference value :  1.01719e-06
 Reference value :  1.02014e-06
 Reference value :  1.02250e-06
 Reference value :  1.02463e-06
 Reference value :  1.02614e-06
 Reference value :  1.02771e-06
 Reference value :  1.02918e-06
 Reference value :  1.03075e-06
 Reference value :  1.03251e-06
 Reference value :  1.03523e-06
 Reference value :  1.03771e-06
 Reference value :  1.04255e-06
 Reference value :  1.04930e-06
 Reference value :  1.05956e-06
 Reference value :  1.07692e-06
 Reference value :  1.10520e-06
 Reference value :  1.14469e-06
 Reference value :  1.22367e-06
 Reference value :  1.25010e-06
 Reference value :  1.25011e-06
 Reference value :  1.25013e-06
 Reference value :  1.25017e-06
 Reference value :  1.25020e-06
 Reference value :  1.25020e-06
 Reference value :  1.25020e-06
 Reference value :  1.25021e-06
 Reference value :  1.25021e-06
 Reference value :  1.25022e-06
 Reference value :  1.25025e-06
 Reference value :  1.25030e-06
 Reference value :  1.25040e-06
 Reference value :  1.25059e-06
 Reference value :  1.25094e-06
 Reference value :  1.25156e-06
 Reference value :  1.25219e-06
 Reference value :  1.25296e-06
 Reference value :  1.25378e-06
 Reference value :  1.25486e-06
 Reference value :  1.25576e-06
 Reference value :  1.25681e-06
 Reference value :  1.25782e-06
 Reference value :  1.25887e-06
 Reference value :  1.26060e-06
 Reference value :  1.26225e-06
 Reference value :  1.26506e-06
 Reference value :  1.26837e-06
 Reference value :  1.27344e-06
 Reference value :  1.28358e-06
 Reference value :  1.30234e-06
 Reference value :  1.33654e-06
 Reference value :  1.40494e-06
 Reference value :  1.50000e-06
 Reference value :  1.50001e-06
 Reference value :  1.50003e-06
 Reference value :  1.50007e-06
 Reference value :  1.50010e-06
 Reference value :  1.50010e-06
 Reference value :  1.50011e-06
 Reference value :  1.50013e-06
 Reference value :  1.50016e-06
 Reference value :  1.50023e-06
 Reference value :  1.50037e-06
 Reference value :  1.50056e-06
 Reference value :  1.50093e-06
 Reference value :  1.50161e-06
 Reference value :  1.50223e-06
 Reference value :  1.50291e-06
 Reference value :  1.50362e-06
 Reference value :  1.50437e-06
 Reference value :  1.50523e-06
 Reference value :  1.50615e-06
 Reference value :  1.50718e-06
 Reference value :  1.50852e-06
 Reference value :  1.50990e-06
 Reference value :  1.51147e-06
 Reference value :  1.51303e-06
 Reference value :  1.51462e-06
 Reference value :  1.51657e-06
 Reference value :  1.51845e-06
 Reference value :  1.52077e-06
 Reference value :  1.52294e-06
 Reference value :  1.52727e-06
 Reference value :  1.53588e-06
 Reference value :  1.54909e-06
 Reference value :  1.57552e-06
 Reference value :  1.62837e-06
 Reference value :  1.73408e-06
 Reference value :  1.75010e-06
 Reference value :  1.75011e-06
 Reference value :  1.75013e-06
 Reference value :  1.75017e-06
 Reference value :  1.75020e-06
 Reference value :  1.75020e-06
 Reference value :  1.75020e-06
 Reference value :  1.75021e-06
 Reference value :  1.75021e-06
 Reference value :  1.75022e-06
 Reference value :  1.75025e-06
 Reference value :  1.75030e-06
 Reference value :  1.75039e-06
 Reference value :  1.75059e-06
 Reference value :  1.75093e-06
 Reference value :  1.75155e-06
 Reference value :  1.75216e-06
 Reference value :  1.75295e-06
 Reference value :  1.75376e-06
 Reference value :  1.75483e-06
 Reference value :  1.75575e-06
 Reference value :  1.75681e-06
 Reference value :  1.75774e-06
 Reference value :  1.75873e-06
 Reference value :  1.75987e-06
 Reference value :  1.76114e-06
 Reference value :  1.76369e-06
 Reference value :  1.76646e-06
 Reference value :  1.77096e-06
 Reference value :  1.77694e-06
 Reference value :  1.78890e-06
 Reference value :  1.81282e-06
 Reference value :  1.86065e-06
 Reference value :  1.95632e-06
 Reference value :  2.00000e-06
 Reference value :  2.00001e-06
 Reference value :  2.00003e-06
 Reference value :  2.00007e-06
 Reference value :  2.00010e-06
 Reference value :  2.00010e-06
 Reference value :  2.00011e-06
 Reference value :  2.00013e-06
 Reference value :  2.00016e-06
 Reference value :  2.00023e-06
 Reference value :  2.00037e-06
 Reference value :  2.00055e-06
 Reference value :  2.00092e-06
 Reference value :  2.00160e-06
 Reference value :  2.00223e-06
 Reference value :  2.00291e-06
 Reference value :  2.00363e-06
 Reference value :  2.00438e-06
 Reference value :  2.00523e-06
 Reference value :  2.00615e-06
 Reference value :  2.00717e-06
 Reference value :  2.00817e-06
 Reference value :  2.00924e-06
 Reference value :  2.01025e-06
 Reference value :  2.01134e-06
 Reference value :  2.01280e-06
 Reference value :  2.01462e-06
 Reference value :  2.01758e-06
 Reference value :  2.02043e-06
 Reference value :  2.02282e-06
 Reference value :  2.02486e-06
 Reference value :  2.02691e-06
 Reference value :  2.02892e-06
 Reference value :  2.03099e-06
 Reference value :  2.03335e-06
 Reference value :  2.03579e-06
 Reference value :  2.03877e-06
 Reference value :  2.04311e-06
 Reference value :  2.04930e-06
 Reference value :  2.05921e-06
 Reference value :  2.07509e-06
 Reference value :  2.10109e-06
 Reference value :  2.14729e-06
 Reference value :  2.20650e-06
 Reference value :  2.25010e-06
 Reference value :  2.25011e-06
 Reference value :  2.25013e-06
 Reference value :  2.25017e-06
 Reference value :  2.25020e-06
 Reference value :  2.25020e-06
 Reference value :  2.25020e-06
 Reference value :  2.25021e-06
 Reference value :  2.25021e-06
 Reference value :  2.25022e-06
 Reference value :  2.25025e-06
 Reference value :  2.25030e-06
 Reference value :  2.25039e-06
 Reference value :  2.25059e-06
 Reference value :  2.25092e-06
 Reference value :  2.25154e-06
 Reference value :  2.25216e-06
 Reference value :  2.25295e-06
 Reference value :  2.25375e-06
 Reference value :  2.25483e-06
 Reference value :  2.25575e-06
 Reference value :  2.25682e-06
 Reference value :  2.25794e-06
 Reference value :  2.25898e-06
 Reference value :  2.26080e-06
 Reference value :  2.26250e-06
 Reference value :  2.26534e-06
 Reference value :  2.26880e-06
 Reference value :  2.27406e-06
 Reference value :  2.28459e-06
 Reference value :  2.30345e-06
 Reference value :  2.33792e-06
 Reference value :  2.40687e-06
 Reference value :  2.49543e-06
 Reference value :  2.50000e-06
 Reference value :  2.50001e-06
 Reference value :  2.50003e-06
 Reference value :  2.50007e-06
 Reference value :  2.50010e-06
 Reference value :  2.50010e-06
 Reference value :  2.50011e-06
 Reference value :  2.50013e-06
 Reference value :  2.50016e-06
 Reference value :  2.50023e-06
 Reference value :  2.50037e-06
 Reference value :  2.50055e-06
 Reference value :  2.50092e-06
 Reference value :  2.50160e-06
 Reference value :  2.50223e-06
 Reference value :  2.50291e-06
 Reference value :  2.50362e-06
 Reference value :  2.50437e-06
 Reference value :  2.50523e-06
 Reference value :  2.50615e-06
 Reference value :  2.50718e-06
 Reference value :  2.50852e-06
 Reference value :  2.50990e-06
 Reference value :  2.51146e-06
 Reference value :  2.51302e-06
 Reference value :  2.51461e-06
 Reference value :  2.51655e-06
 Reference value :  2.51831e-06
 Reference value :  2.52029e-06
 Reference value :  2.52242e-06
 Reference value :  2.52668e-06
 Reference value :  2.53486e-06
 Reference value :  2.54853e-06
 Reference value :  2.57587e-06
 Reference value :  2.63055e-06
 Reference value :  2.73990e-06
 Reference value :  2.75010e-06
 Reference value :  2.75011e-06
 Reference value :  2.75013e-06
 Reference value :  2.75017e-06
 Reference value :  2.75020e-06
 Reference value :  2.75020e-06
 Reference value :  2.75020e-06
 Reference value :  2.75021e-06
 Reference value :  2.75021e-06
 Reference value :  2.75022e-06
 Reference value :  2.75025e-06
 Reference value :  2.75030e-06
 Reference value :  2.75039e-06
 Reference value :  2.75059e-06
 Reference value :  2.75093e-06
 Reference value :  2.75154e-06
 Reference value :  2.75216e-06
 Reference value :  2.75294e-06
 Reference value :  2.75375e-06
 Reference value :  2.75482e-06
 Reference value :  2.75575e-06
 Reference value :  2.75681e-06
 Reference value :  2.75775e-06
 Reference value :  2.75874e-06
 Reference value :  2.75987e-06
 Reference value :  2.76114e-06
 Reference value :  2.76368e-06
 Reference value :  2.76645e-06
 Reference value :  2.77095e-06
 Reference value :  2.77693e-06
 Reference value :  2.78890e-06
 Reference value :  2.81284e-06
 Reference value :  2.86071e-06
 Reference value :  2.95647e-06
 Reference value :  3.00000e-06
 Reference value :  3.00001e-06
 Reference value :  3.00003e-06
 Reference value :  3.00007e-06
 Reference value :  3.00010e-06
 Reference value :  3.00010e-06
 Reference value :  3.00011e-06
 Reference value :  3.00013e-06
 Reference value :  3.00016e-06
 Reference value :  3.00023e-06
 Reference value :  3.00037e-06
 Reference value :  3.00055e-06
 Reference value :  3.00092e-06
 Reference value :  3.00160e-06
 Reference value :  3.00223e-06
 Reference value :  3.00291e-06
 Reference value :  3.00362e-06
 Reference value :  3.00438e-06
 Reference value :  3.00523e-06
 Reference value :  3.00614e-06
 Reference value :  3.00709e-06
 Reference value :  3.00811e-06
 Reference value :  3.00918e-06
 Reference value :  3.01020e-06
 Reference value :  3.01129e-06
 Reference value :  3.01275e-06
 Reference value :  3.01455e-06
 Reference value :  3.01750e-06
 Reference value :  3.02028e-06
 Reference value :  3.02266e-06
 Reference value :  3.02457e-06
 Reference value :  3.02637e-06
 Reference value :  3.02839e-06
 Reference value :  3.03026e-06
 Reference value :  3.03254e-06
 Reference value :  3.03488e-06
 Reference value :  3.03824e-06
 Reference value :  3.04226e-06
 Reference value :  3.05000e-06
 Reference value :  3.06207e-06
 Reference value :  3.08235e-06
 Reference value :  3.12087e-06
 Reference value :  3.17958e-06
 Reference value :  3.24313e-06
 Reference value :  3.25010e-06
 Reference value :  3.25011e-06
 Reference value :  3.25013e-06
 Reference value :  3.25017e-06
 Reference value :  3.25020e-06
 Reference value :  3.25020e-06
 Reference value :  3.25020e-06
 Reference value :  3.25021e-06
 Reference value :  3.25021e-06
 Reference value :  3.25022e-06
 Reference value :  3.25025e-06
 Reference value :  3.25030e-06
 Reference value :  3.25039e-06
 Reference value :  3.25059e-06
 Reference value :  3.25092e-06
 Reference value :  3.25154e-06
 Reference value :  3.25216e-06
 Reference value :  3.25294e-06
 Reference value :  3.25375e-06
 Reference value :  3.25482e-06
 Reference value :  3.25574e-06
 Reference value :  3.25680e-06
 Reference value :  3.25793e-06
 Reference value :  3.25896e-06
 Reference value :  3.26078e-06
 Reference value :  3.26247e-06
 Reference value :  3.26530e-06
 Reference value :  3.26874e-06
 Reference value :  3.27398e-06
 Reference value :  3.28446e-06
 Reference value :  3.30332e-06
 Reference value :  3.33782e-06
 Reference value :  3.40680e-06
 Reference value :  3.50000e-06
 Reference value :  3.50001e-06
 Reference value :  3.50003e-06
 Reference value :  3.50007e-06
 Reference value :  3.50010e-06
 Reference value :  3.50010e-06
 Reference value :  3.50011e-06
 Reference value :  3.50013e-06
 Reference value :  3.50016e-06
 Reference value :  3.50023e-06
 Reference value :  3.50037e-06
 Reference value :  3.50056e-06
 Reference value :  3.50093e-06
 Reference value :  3.50161e-06
 Reference value :  3.50223e-06
 Reference value :  3.50291e-06
 Reference value :  3.50362e-06
 Reference value :  3.50437e-06
 Reference value :  3.50522e-06
 Reference value :  3.50614e-06
 Reference value :  3.50710e-06
 Reference value :  3.50845e-06
 Reference value :  3.50976e-06
 Reference value :  3.51140e-06
 Reference value :  3.51287e-06
 Reference value :  3.51442e-06
 Reference value :  3.51594e-06
 Reference value :  3.51766e-06
 Reference value :  3.51944e-06
 Reference value :  3.52137e-06
 Reference value :  3.52522e-06
 Reference value :  3.53288e-06
 Reference value :  3.54580e-06
 Reference value :  3.57165e-06
 Reference value :  3.62333e-06
 Reference value :  3.72670e-06
 Reference value :  3.75010e-06
 Reference value :  3.75011e-06
 Reference value :  3.75013e-06
 Reference value :  3.75017e-06
 Reference value :  3.75020e-06
 Reference value :  3.75020e-06
 Reference value :  3.75020e-06
 Reference value :  3.75021e-06
 Reference value :  3.75021e-06
 Reference value :  3.75022e-06
 Reference value :  3.75025e-06
 Reference value :  3.75030e-06
 Reference value :  3.75039e-06
 Reference value :  3.75059e-06
 Reference value :  3.75093e-06
 Reference value :  3.75154e-06
 Reference value :  3.75216e-06
 Reference value :  3.75294e-06
 Reference value :  3.75375e-06
 Reference value :  3.75482e-06
 Reference value :  3.75574e-06
 Reference value :  3.75680e-06
 Reference value :  3.75773e-06
 Reference value :  3.75872e-06
 Reference value :  3.75985e-06
 Reference value :  3.76111e-06
 Reference value :  3.76364e-06
 Reference value :  3.76640e-06
 Reference value :  3.77088e-06
 Reference value :  3.77679e-06
 Reference value :  3.78862e-06
 Reference value :  3.81227e-06
 Reference value :  3.85957e-06
 Reference value :  3.95418e-06
 Reference value :  4.00000e-06
 Reference value :  4.00001e-06
 Reference value :  4.00003e-06
 Reference value :  4.00007e-06
 Reference value :  4.00010e-06
 Reference value :  4.00010e-06
 Reference value :  4.00011e-06
 Reference value :  4.00013e-06
 Reference value :  4.00016e-06
 Reference value :  4.00023e-06
 Reference value :  4.00037e-06
 Reference value :  4.00055e-06
 Reference value :  4.00092e-06
 Reference value :  4.00160e-06
 Reference value :  4.00223e-06
 Reference value :  4.00291e-06
 Reference value :  4.00363e-06
 Reference value :  4.00438e-06
 Reference value :  4.00523e-06
 Reference value :  4.00614e-06
 Reference value :  4.00717e-06
 Reference value :  4.00817e-06
 Reference value :  4.00913e-06
 Reference value :  4.01013e-06
 Reference value :  4.01118e-06
 Reference value :  4.01254e-06
 Reference value :  4.01441e-06
 Reference value :  4.01728e-06
 Reference value :  4.02017e-06
 Reference value :  4.02255e-06
 Reference value :  4.02446e-06
 Reference value :  4.02627e-06
 Reference value :  4.02828e-06
 Reference value :  4.03017e-06
 Reference value :  4.03234e-06
 Reference value :  4.03466e-06
 Reference value :  4.03803e-06
 Reference value :  4.04185e-06
 Reference value :  4.04930e-06
 Reference value :  4.06054e-06
 Reference value :  4.07915e-06
 Reference value :  4.11299e-06
 Reference value :  4.13458e-06
 Reference value :  4.15154e-06
 Reference value :  4.17316e-06
 Reference value :  4.20456e-06
 Reference value :  4.24501e-06
 Reference value :  4.25010e-06
 Reference value :  4.25011e-06
 Reference value :  4.25013e-06
 Reference value :  4.25017e-06
 Reference value :  4.25020e-06
 Reference value :  4.25020e-06
 Reference value :  4.25020e-06
 Reference value :  4.25021e-06
 Reference value :  4.25021e-06
 Reference value :  4.25022e-06
 Reference value :  4.25025e-06
 Reference value :  4.25030e-06
 Reference value :  4.25040e-06
 Reference value :  4.25059e-06
 Reference value :  4.25094e-06
 Reference value :  4.25154e-06
 Reference value :  4.25218e-06
 Reference value :  4.25294e-06
 Reference value :  4.25376e-06
 Reference value :  4.25483e-06
 Reference value :  4.25573e-06
 Reference value :  4.25679e-06
 Reference value :  4.25780e-06
 Reference value :  4.25885e-06
 Reference value :  4.26058e-06
 Reference value :  4.26223e-06
 Reference value :  4.26509e-06
 Reference value :  4.26834e-06
 Reference value :  4.27345e-06
 Reference value :  4.28360e-06
 Reference value :  4.30268e-06
 Reference value :  4.33816e-06
 Reference value :  4.40913e-06
 Reference value :  4.50000e-06
 Reference value :  4.50001e-06
 Reference value :  4.50003e-06
 Reference value :  4.50007e-06
 Reference value :  4.50010e-06
 Reference value :  4.50010e-06
 Reference value :  4.50011e-06
 Reference value :  4.50013e-06
 Reference value :  4.50016e-06
 Reference value :  4.50023e-06
 Reference value :  4.50037e-06
 Reference value :  4.50056e-06
 Reference value :  4.50092e-06
 Reference value :  4.50161e-06
 Reference value :  4.50223e-06
 Reference value :  4.50290e-06
 Reference value :  4.50362e-06
 Reference value :  4.50437e-06
 Reference value :  4.50522e-06
 Reference value :  4.50614e-06
 Reference value :  4.50710e-06
 Reference value :  4.50845e-06
 Reference value :  4.50976e-06
 Reference value :  4.51127e-06
 Reference value :  4.51280e-06
 Reference value :  4.51435e-06
 Reference value :  4.51579e-06
 Reference value :  4.51738e-06
 Reference value :  4.51898e-06
 Reference value :  4.52084e-06
 Reference value :  4.52455e-06
 Reference value :  4.53066e-06
 Reference value :  4.54288e-06
 Reference value :  4.56732e-06
 Reference value :  4.61619e-06
 Reference value :  4.71394e-06
 Reference value :  4.75010e-06
 Reference value :  4.75011e-06
 Reference value :  4.75013e-06
 Reference value :  4.75017e-06
 Reference value :  4.75020e-06
 Reference value :  4.75020e-06
 Reference value :  4.75020e-06
 Reference value :  4.75021e-06
 Reference value :  4.75021e-06
 Reference value :  4.75022e-06
 Reference value :  4.75025e-06
 Reference value :  4.75030e-06
 Reference value :  4.75039e-06
 Reference value :  4.75059e-06
 Reference value :  4.75092e-06
 Reference value :  4.75154e-06
 Reference value :  4.75216e-06
 Reference value :  4.75294e-06
 Reference value :  4.75375e-06
 Reference value :  4.75481e-06
 Reference value :  4.75573e-06
 Reference value :  4.75679e-06
 Reference value :  4.75772e-06
 Reference value :  4.75871e-06
 Reference value :  4.75984e-06
 Reference value :  4.76110e-06
 Reference value :  4.76363e-06
 Reference value :  4.76638e-06
 Reference value :  4.77085e-06
 Reference value :  4.77674e-06
 Reference value :  4.78852e-06
 Reference value :  4.81207e-06
 Reference value :  4.85917e-06
 Reference value :  4.95337e-06
 Reference value :  5.00000e-06
 Reference value :  5.00001e-06
 Reference value :  5.00003e-06
 Reference value :  5.00007e-06
 Reference value :  5.00010e-06
 Reference value :  5.00010e-06
 Reference value :  5.00011e-06
 Reference value :  5.00013e-06
 Reference value :  5.00016e-06
 Reference value :  5.00023e-06
 Reference value :  5.00037e-06
 Reference value :  5.00055e-06
 Reference value :  5.00092e-06
 Reference value :  5.00160e-06
 Reference value :  5.00223e-06
 Reference value :  5.00291e-06
 Reference value :  5.00363e-06
 Reference value :  5.00440e-06
 Reference value :  5.00525e-06
 Reference value :  5.00616e-06
 Reference value :  5.00718e-06
 Reference value :  5.00821e-06
 Reference value :  5.00909e-06
 Reference value :  5.01013e-06
 Reference value :  5.01115e-06
 Reference value :  5.01249e-06
 Reference value :  5.01444e-06
 Reference value :  5.01733e-06
 Reference value :  5.02026e-06
 Reference value :  5.02266e-06
 Reference value :  5.02460e-06
 Reference value :  5.02642e-06
 Reference value :  5.02845e-06
 Reference value :  5.03034e-06
 Reference value :  5.03275e-06
 Reference value :  5.03501e-06
 Reference value :  5.03846e-06
 Reference value :  5.04280e-06
 Reference value :  5.05014e-06
 Reference value :  5.06228e-06
 Reference value :  5.07248e-06
 Reference value :  5.08435e-06
 Reference value :  5.09269e-06
 Reference value :  5.10197e-06
 Reference value :  5.11464e-06
 Reference value :  5.12799e-06
 Reference value :  5.15469e-06
 Reference value :  5.18787e-06
 Reference value :  5.24585e-06
 Reference value :  5.25010e-06
 Reference value :  5.25011e-06
 Reference value :  5.25013e-06
 Reference value :  5.25017e-06
 Reference value :  5.25020e-06
 Reference value :  5.25020e-06
 Reference value :  5.25020e-06
 Reference value :  5.25021e-06
 Reference value :  5.25021e-06
 Reference value :  5.25022e-06
 Reference value :  5.25025e-06
 Reference value :  5.25030e-06
 Reference value :  5.25040e-06
 Reference value :  5.25059e-06
 Reference value :  5.25094e-06
 Reference value :  5.25154e-06
 Reference value :  5.25218e-06
 Reference value :  5.25294e-06
 Reference value :  5.25376e-06
 Reference value :  5.25482e-06
 Reference value :  5.25574e-06
 Reference value :  5.25680e-06
 Reference value :  5.25793e-06
 Reference value :  5.25896e-06
 Reference value :  5.26078e-06
 Reference value :  5.26246e-06
 Reference value :  5.26529e-06
 Reference value :  5.26873e-06
 Reference value :  5.27396e-06
 Reference value :  5.28442e-06
 Reference value :  5.30309e-06
 Reference value :  5.33721e-06
 Reference value :  5.40546e-06
 Reference value :  5.50000e-06
 Reference value :  5.50001e-06
 Reference value :  5.50003e-06
 Reference value :  5.50007e-06
 Reference value :  5.50010e-06
 Reference value :  5.50010e-06
 Reference value :  5.50011e-06
 Reference value :  5.50013e-06
 Reference value :  5.50016e-06
 Reference value :  5.50023e-06
 Reference value :  5.50037e-06
 Reference value :  5.50056e-06
 Reference value :  5.50093e-06
 Reference value :  5.50161e-06
 Reference value :  5.50223e-06
 Reference value :  5.50291e-06
 Reference value :  5.50362e-06
 Reference value :  5.50437e-06
 Reference value :  5.50523e-06
 Reference value :  5.50614e-06
 Reference value :  5.50718e-06
 Reference value :  5.50851e-06
 Reference value :  5.50989e-06
 Reference value :  5.51133e-06
 Reference value :  5.51293e-06
 Reference value :  5.51458e-06
 Reference value :  5.51615e-06
 Reference value :  5.51779e-06
 Reference value :  5.51958e-06
 Reference value :  5.52161e-06
 Reference value :  5.52526e-06
 Reference value :  5.53064e-06
 Reference value :  5.54110e-06
 Reference value :  5.56081e-06
 Reference value :  5.59804e-06
 Reference value :  5.67249e-06
 Reference value :  5.75010e-06
 Reference value :  5.75011e-06
 Reference value :  5.75013e-06
 Reference value :  5.75017e-06
 Reference value :  5.75020e-06
 Reference value :  5.75020e-06
 Reference value :  5.75020e-06
 Reference value :  5.75021e-06
 Reference value :  5.75021e-06
 Reference value :  5.75022e-06
 Reference value :  5.75025e-06
 Reference value :  5.75030e-06
 Reference value :  5.75039e-06
 Reference value :  5.75059e-06
 Reference value :  5.75093e-06
 Reference value :  5.75154e-06
 Reference value :  5.75216e-06
 Reference value :  5.75294e-06
 Reference value :  5.75375e-06
 Reference value :  5.75481e-06
 Reference value :  5.75574e-06
 Reference value :  5.75680e-06
 Reference value :  5.75774e-06
 Reference value :  5.75873e-06
 Reference value :  5.75986e-06
 Reference value :  5.76113e-06
 Reference value :  5.76367e-06
 Reference value :  5.76645e-06
 Reference value :  5.77094e-06
 Reference value :  5.77692e-06
 Reference value :  5.78888e-06
 Reference value :  5.81279e-06
 Reference value :  5.86063e-06
 Reference value :  5.95631e-06
 Reference value :  6.00000e-06
 Reference value :  6.00001e-06
 Reference value :  6.00003e-06
 Reference value :  6.00007e-06
 Reference value :  6.00010e-06
 Reference value :  6.00010e-06
 Reference value :  6.00011e-06
 Reference value :  6.00013e-06
 Reference value :  6.00016e-06
 Reference value :  6.00023e-06
 Reference value :  6.00037e-06
 Reference value :  6.00055e-06
 Reference value :  6.00092e-06
 Reference value :  6.00160e-06
 Reference value :  6.00223e-06
 Reference value :  6.00291e-06
 Reference value :  6.00363e-06
 Reference value :  6.00438e-06
 Reference value :  6.00523e-06
 Reference value :  6.00615e-06
 Reference value :  6.00709e-06
 Reference value :  6.00812e-06
 Reference value :  6.00897e-06
 Reference value :  6.00996e-06
 Reference value :  6.01098e-06
 Reference value :  6.01227e-06
 Reference value :  6.01423e-06
 Reference value :  6.01723e-06
 Reference value :  6.02028e-06
 Reference value :  6.02268e-06
 Reference value :  6.02472e-06
 Reference value :  6.02668e-06
 Reference value :  6.02868e-06
 Reference value :  6.03068e-06
 Reference value :  6.03317e-06
 Reference value :  6.03544e-06
 Reference value :  6.03898e-06
 Reference value :  6.04348e-06
 Reference value :  6.05219e-06
 Reference value :  6.05882e-06
 Reference value :  6.06503e-06
 Reference value :  6.07161e-06
 Reference value :  6.07933e-06
 Reference value :  6.08668e-06
 Reference value :  6.09704e-06
 Reference value :  6.11201e-06
 Reference value :  6.14196e-06
 Reference value :  6.18661e-06
 Reference value :  6.25010e-06
 Reference value :  6.25011e-06
 Reference value :  6.25013e-06
 Reference value :  6.25017e-06
 Reference value :  6.25020e-06
 Reference value :  6.25020e-06
 Reference value :  6.25020e-06
 Reference value :  6.25021e-06
 Reference value :  6.25021e-06
 Reference value :  6.25022e-06
 Reference value :  6.25025e-06
 Reference value :  6.25030e-06
 Reference value :  6.25039e-06
 Reference value :  6.25059e-06
 Reference value :  6.25092e-06
 Reference value :  6.25154e-06
 Reference value :  6.25216e-06
 Reference value :  6.25294e-06
 Reference value :  6.25375e-06
 Reference value :  6.25481e-06
 Reference value :  6.25574e-06
 Reference value :  6.25681e-06
 Reference value :  6.25792e-06
 Reference value :  6.25896e-06
 Reference value :  6.26077e-06
 Reference value :  6.26246e-06
 Reference value :  6.26528e-06
 Reference value :  6.26872e-06
 Reference value :  6.27394e-06
 Reference value :  6.28438e-06
 Reference value :  6.30310e-06
 Reference value :  6.33730e-06
 Reference value :  6.40568e-06
 Reference value :  6.50000e-06
 Reference value :  6.50001e-06
 Reference value :  6.50003e-06
 Reference value :  6.50007e-06
 Reference value :  6.50010e-06
 Reference value :  6.50010e-06
 Reference value :  6.50011e-06
 Reference value :  6.50013e-06
 Reference value :  6.50016e-06
 Reference value :  6.50023e-06
 Reference value :  6.50037e-06
 Reference value :  6.50056e-06
 Reference value :  6.50093e-06
 Reference value :  6.50161e-06
 Reference value :  6.50223e-06
 Reference value :  6.50291e-06
 Reference value :  6.50362e-06
 Reference value :  6.50437e-06
 Reference value :  6.50522e-06
 Reference value :  6.50614e-06
 Reference value :  6.50710e-06
 Reference value :  6.50846e-06
 Reference value :  6.50977e-06
 Reference value :  6.51141e-06
 Reference value :  6.51290e-06
 Reference value :  6.51444e-06
 Reference value :  6.51587e-06
 Reference value :  6.51746e-06
 Reference value :  6.51911e-06
 Reference value :  6.52100e-06
 Reference value :  6.52479e-06
 Reference value :  6.53048e-06
 Reference value :  6.54187e-06
 Reference value :  6.56465e-06
 Reference value :  6.61021e-06
 Reference value :  6.70133e-06
 Reference value :  6.75010e-06
 Reference value :  6.75011e-06
 Reference value :  6.75013e-06
 Reference value :  6.75017e-06
 Reference value :  6.75020e-06
 Reference value :  6.75020e-06
 Reference value :  6.75020e-06
 Reference value :  6.75021e-06
 Reference value :  6.75021e-06
 Reference value :  6.75022e-06
 Reference value :  6.75025e-06
 Reference value :  6.75030e-06
 Reference value :  6.75039e-06
 Reference value :  6.75059e-06
 Reference value :  6.75093e-06
 Reference value :  6.75154e-06
 Reference value :  6.75216e-06
 Reference value :  6.75294e-06
 Reference value :  6.75375e-06
 Reference value :  6.75481e-06
 Reference value :  6.75574e-06
 Reference value :  6.75680e-06
 Reference value :  6.75774e-06
 Reference value :  6.75873e-06
 Reference value :  6.75986e-06
 Reference value :  6.76113e-06
 Reference value :  6.76367e-06
 Reference value :  6.76644e-06
 Reference value :  6.77093e-06
 Reference value :  6.77690e-06
 Reference value :  6.78884e-06
 Reference value :  6.81272e-06
 Reference value :  6.86047e-06
 Reference value :  6.95596e-06
 Reference value :  7.00000e-06
 Reference value :  7.00001e-06
 Reference value :  7.00003e-06
 Reference value :  7.00007e-06
 Reference value :  7.00010e-06
 Reference value :  7.00010e-06
 Reference value :  7.00011e-06
 Reference value :  7.00013e-06
 Reference value :  7.00016e-06
 Reference value :  7.00023e-06
 Reference value :  7.00037e-06
 Reference value :  7.00055e-06
 Reference value :  7.00092e-06
 Reference value :  7.00160e-06
 Reference value :  7.00223e-06
 Reference value :  7.00291e-06
 Reference value :  7.00363e-06
 Reference value :  7.00438e-06
 Reference value :  7.00523e-06
 Reference value :  7.00614e-06
 Reference value :  7.00717e-06
 Reference value :  7.00818e-06
 Reference value :  7.00903e-06
 Reference value :  7.01006e-06
 Reference value :  7.01107e-06
 Reference value :  7.01239e-06
 Reference value :  7.01435e-06
 Reference value :  7.01722e-06
 Reference value :  7.02045e-06
 Reference value :  7.02287e-06
 Reference value :  7.02508e-06
 Reference value :  7.02723e-06
 Reference value :  7.02923e-06
 Reference value :  7.03142e-06
 Reference value :  7.03377e-06
 Reference value :  7.03632e-06
 Reference value :  7.03926e-06
 Reference value :  7.04314e-06
 Reference value :  7.04705e-06
 Reference value :  7.05078e-06
 Reference value :  7.05558e-06
 Reference value :  7.06322e-06
 Reference value :  7.07462e-06
 Reference value :  7.09659e-06
 Reference value :  7.12569e-06
 Reference value :  7.17574e-06
 Reference value :  7.25010e-06
 Reference value :  7.25011e-06
 Reference value :  7.25013e-06
 Reference value :  7.25017e-06
 Reference value :  7.25020e-06
 Reference value :  7.25020e-06
 Reference value :  7.25020e-06
 Reference value :  7.25021e-06
 Reference value :  7.25021e-06
 Reference value :  7.25022e-06
 Reference value :  7.25025e-06
 Reference value :  7.25030e-06
 Reference value :  7.25039e-06
 Reference value :  7.25059e-06
 Reference value :  7.25093e-06
 Reference value :  7.25154e-06
 Reference value :  7.25217e-06
 Reference value :  7.25294e-06
 Reference value :  7.25375e-06
 Reference value :  7.25482e-06
 Reference value :  7.25570e-06
 Reference value :  7.25675e-06
 Reference value :  7.25775e-06
 Reference value :  7.25878e-06
 Reference value :  7.26050e-06
 Reference value :  7.26211e-06
 Reference value :  7.26498e-06
 Reference value :  7.26815e-06
 Reference value :  7.27322e-06
 Reference value :  7.28298e-06
 Reference value :  7.30239e-06
 Reference value :  7.34039e-06
 Reference value :  7.41639e-06
 Reference value :  7.50000e-06
 Reference value :  7.50001e-06
 Reference value :  7.50003e-06
 Reference value :  7.50007e-06
 Reference value :  7.50010e-06
 Reference value :  7.50010e-06
 Reference value :  7.50011e-06
 Reference value :  7.50013e-06
 Reference value :  7.50016e-06
 Reference value :  7.50023e-06
 Reference value :  7.50037e-06
 Reference value :  7.50056e-06
 Reference value :  7.50093e-06
 Reference value :  7.50152e-06
 Reference value :  7.50214e-06
 Reference value :  7.50283e-06
 Reference value :  7.50356e-06
 Reference value :  7.50431e-06
 Reference value :  7.50516e-06
 Reference value :  7.50609e-06
 Reference value :  7.50713e-06
 Reference value :  7.50846e-06
 Reference value :  7.50984e-06
 Reference value :  7.51155e-06
 Reference value :  7.51308e-06
 Reference value :  7.51466e-06
 Reference value :  7.51609e-06
 Reference value :  7.51771e-06
 Reference value :  7.51931e-06
 Reference value :  7.52118e-06
 Reference value :  7.52491e-06
 Reference value :  7.53121e-06
 Reference value :  7.54380e-06
 Reference value :  7.56898e-06
 Reference value :  7.61934e-06
 Reference value :  7.72007e-06
 Reference value :  7.75010e-06
 Reference value :  7.75011e-06
 Reference value :  7.75013e-06
 Reference value :  7.75017e-06
 Reference value :  7.75020e-06
 Reference value :  7.75020e-06
 Reference value :  7.75020e-06
 Reference value :  7.75021e-06
 Reference value :  7.75021e-06
 Reference value :  7.75022e-06
 Reference value :  7.75025e-06
 Reference value :  7.75030e-06
 Reference value :  7.75039e-06
 Reference value :  7.75059e-06
 Reference value :  7.75093e-06
 Reference value :  7.75154e-06
 Reference value :  7.75217e-06
 Reference value :  7.75294e-06
 Reference value :  7.75375e-06
 Reference value :  7.75482e-06
 Reference value :  7.75570e-06
 Reference value :  7.75674e-06
 Reference value :  7.75765e-06
 Reference value :  7.75862e-06
 Reference value :  7.75974e-06
 Reference value :  7.76099e-06
 Reference value :  7.76349e-06
 Reference value :  7.76620e-06
 Reference value :  7.77061e-06
 Reference value :  7.77631e-06
 Reference value :  7.78769e-06
 Reference value :  7.81047e-06
 Reference value :  7.85602e-06
 Reference value :  7.94713e-06
 Reference value :  8.00000e-06
 Reference value :  8.00001e-06
 Reference value :  8.00003e-06
 Reference value :  8.00007e-06
 Reference value :  8.00010e-06
 Reference value :  8.00010e-06
 Reference value :  8.00011e-06
 Reference value :  8.00013e-06
 Reference value :  8.00016e-06
 Reference value :  8.00023e-06
 Reference value :  8.00037e-06
 Reference value :  8.00055e-06
 Reference value :  8.00092e-06
 Reference value :  8.00151e-06
 Reference value :  8.00214e-06
 Reference value :  8.00283e-06
 Reference value :  8.00356e-06
 Reference value :  8.00432e-06
 Reference value :  8.00516e-06
 Reference value :  8.00609e-06
 Reference value :  8.00702e-06
 Reference value :  8.00802e-06
 Reference value :  8.00896e-06
 Reference value :  8.00994e-06
 Reference value :  8.01097e-06
 Reference value :  8.01231e-06
 Reference value :  8.01413e-06
 Reference value :  8.01685e-06
 Reference value :  8.02021e-06
 Reference value :  8.02271e-06
 Reference value :  8.02545e-06
 Reference value :  8.02813e-06
 Reference value :  8.03121e-06
 Reference value :  8.03585e-06
 Reference value :  8.04193e-06
 Reference value :  8.05211e-06
 Reference value :  8.06824e-06
 Reference value :  8.09507e-06
 Reference value :  8.14699e-06
 Reference value :  8.24940e-06
 Reference value :  8.25010e-06
 Reference value :  8.25011e-06
 Reference value :  8.25013e-06
 Reference value :  8.25017e-06
 Reference value :  8.25020e-06
 Reference value :  8.25020e-06
 Reference value :  8.25020e-06
 Reference value :  8.25021e-06
 Reference value :  8.25021e-06
 Reference value :  8.25022e-06
 Reference value :  8.25025e-06
 Reference value :  8.25030e-06
 Reference value :  8.25039e-06
 Reference value :  8.25059e-06
 Reference value :  8.25097e-06
 Reference value :  8.25154e-06
 Reference value :  8.25221e-06
 Reference value :  8.25295e-06
 Reference value :  8.25379e-06
 Reference value :  8.25485e-06
 Reference value :  8.25616e-06
 Reference value :  8.25753e-06
 Reference value :  8.25911e-06
 Reference value :  8.26083e-06
 Reference value :  8.26340e-06
 Reference value :  8.26637e-06
 Reference value :  8.27042e-06
 Reference value :  8.27626e-06
 Reference value :  8.28793e-06
 Reference value :  8.31126e-06
 Reference value :  8.35765e-06
 Reference value :  8.45042e-06
 Reference value :  8.50000e-06
No. of Data Rows : 1280
ngspice-44 done
