
Note: Compatibility modes selected: hs a


Circuit: ** sch_path: /home/audrey/cace/sar-adc-using-sky130-pdk/runs/run_2025-09-07_22-31-54/parameters/power/run_4/power_consumption.sch

option SCALE: Scale is set to 1e-06 for instance and model parameters
option SCALE: Scale is set to 1e-06 for instance and model parameters
option SCALE: Scale is set to 1e-06 for instance and model parameters
option SCALE: Scale is set to 1e-06 for instance and model parameters
Doing analysis at TEMP = 27.000000 and TNOM = 27.000000

Using KLU as Direct Linear Solver
 Reference value :  0.00000e+00
 Reference value :  1.00000e-12
 Reference value :  2.00000e-12
 Reference value :  4.00000e-12
 Reference value :  8.00000e-12
 Reference value :  1.60000e-11
 Reference value :  3.20000e-11
 Reference value :  6.40000e-11
 Reference value :  1.00000e-10
 Reference value :  1.01503e-10
 Reference value :  1.04508e-10
 Reference value :  1.10520e-10
 Reference value :  1.22542e-10
 Reference value :  1.46587e-10
 Reference value :  1.94677e-10
 Reference value :  2.90857e-10
 Reference value :  4.45339e-10
 Reference value :  7.21181e-10
 Reference value :  1.20324e-09
 Reference value :  1.65762e-09
 Reference value :  2.29650e-09
 Reference value :  3.01767e-09
 Reference value :  3.71760e-09
 Reference value :  4.63039e-09
 Reference value :  5.37156e-09
 Reference value :  6.15564e-09
 Reference value :  6.84641e-09
 Reference value :  7.67889e-09
 Reference value :  8.63444e-09
 Reference value :  9.64684e-09
 Reference value :  1.07875e-08
 Reference value :  1.20601e-08
 Reference value :  1.32465e-08
 Reference value :  1.46516e-08
 Reference value :  1.61479e-08
 Reference value :  1.73093e-08
 Reference value :  1.86324e-08
 Reference value :  2.00295e-08
 Reference value :  2.15570e-08
 Reference value :  2.32688e-08
 Reference value :  2.58724e-08
 Reference value :  2.82941e-08
 Reference value :  3.06556e-08
 Reference value :  3.30132e-08
 Reference value :  3.41095e-08
 Reference value :  3.52608e-08
 Reference value :  3.65257e-08
 Reference value :  3.78970e-08
 Reference value :  4.01057e-08
 Reference value :  4.29580e-08
 Reference value :  4.72771e-08
 Reference value :  5.15272e-08
 Reference value :  5.72545e-08
 Reference value :  6.24259e-08
 Reference value :  7.27689e-08
 Reference value :  8.48532e-08
 Reference value :  1.06881e-07
 Reference value :  1.28775e-07
 Reference value :  1.67588e-07
 Reference value :  2.11904e-07
 Reference value :  2.50100e-07
 Reference value :  2.50110e-07
 Reference value :  2.50130e-07
 Reference value :  2.50170e-07
 Reference value :  2.50200e-07
 Reference value :  2.50201e-07
 Reference value :  2.50202e-07
 Reference value :  2.50204e-07
 Reference value :  2.50208e-07
 Reference value :  2.50216e-07
 Reference value :  2.50233e-07
 Reference value :  2.50266e-07
 Reference value :  2.50333e-07
 Reference value :  2.50415e-07
 Reference value :  2.50579e-07
 Reference value :  2.50755e-07
 Reference value :  2.51080e-07
 Reference value :  2.51467e-07
 Reference value :  2.52030e-07
 Reference value :  2.52633e-07
 Reference value :  2.53380e-07
 Reference value :  2.54347e-07
 Reference value :  2.55208e-07
 Reference value :  2.56071e-07
 Reference value :  2.56959e-07
 Reference value :  2.57903e-07
 Reference value :  2.58851e-07
 Reference value :  2.60285e-07
 Reference value :  2.62475e-07
 Reference value :  2.64887e-07
 Reference value :  2.68836e-07
 Reference value :  2.74182e-07
 Reference value :  2.84874e-07
 Reference value :  3.06258e-07
 Reference value :  3.48181e-07
 Reference value :  4.32026e-07
 Reference value :  5.00000e-07
 Reference value :  5.00010e-07
 Reference value :  5.00030e-07
 Reference value :  5.00070e-07
 Reference value :  5.00100e-07
 Reference value :  5.00104e-07
 Reference value :  5.00113e-07
 Reference value :  5.00130e-07
 Reference value :  5.00164e-07
 Reference value :  5.00231e-07
 Reference value :  5.00367e-07
 Reference value :  5.00555e-07
 Reference value :  5.00932e-07
 Reference value :  5.01446e-07
 Reference value :  5.01996e-07
 Reference value :  5.02584e-07
 Reference value :  5.03316e-07
 Reference value :  5.04010e-07
 Reference value :  5.04937e-07
 Reference value :  5.05791e-07
 Reference value :  5.06838e-07
 Reference value :  5.08099e-07
 Reference value :  5.09668e-07
 Reference value :  5.11850e-07
 Reference value :  5.14331e-07
 Reference value :  5.16289e-07
 Reference value :  5.18411e-07
 Reference value :  5.21052e-07
 Reference value :  5.23879e-07
 Reference value :  5.26710e-07
 Reference value :  5.29457e-07
 Reference value :  5.32605e-07
 Reference value :  5.35913e-07
 Reference value :  5.39870e-07
 Reference value :  5.44778e-07
 Reference value :  5.51206e-07
 Reference value :  5.61681e-07
 Reference value :  5.78490e-07
 Reference value :  6.12106e-07
 Reference value :  6.72447e-07
 Reference value :  7.50100e-07
 Reference value :  7.50110e-07
 Reference value :  7.50130e-07
 Reference value :  7.50170e-07
 Reference value :  7.50200e-07
 Reference value :  7.50201e-07
 Reference value :  7.50202e-07
 Reference value :  7.50205e-07
 Reference value :  7.50211e-07
 Reference value :  7.50223e-07
 Reference value :  7.50247e-07
 Reference value :  7.50295e-07
 Reference value :  7.50390e-07
 Reference value :  7.50581e-07
 Reference value :  7.50959e-07
 Reference value :  7.51482e-07
 Reference value :  7.52141e-07
 Reference value :  7.52795e-07
 Reference value :  7.53543e-07
 Reference value :  7.54583e-07
 Reference value :  7.55334e-07
 Reference value :  7.56189e-07
 Reference value :  7.56942e-07
 Reference value :  7.57789e-07
 Reference value :  7.58811e-07
 Reference value :  7.59934e-07
 Reference value :  7.62180e-07
 Reference value :  7.64680e-07
 Reference value :  7.68745e-07
 Reference value :  7.74142e-07
 Reference value :  7.84936e-07
 Reference value :  8.06524e-07
 Reference value :  8.49700e-07
 Reference value :  9.36051e-07
 Reference value :  1.00000e-06
 Reference value :  1.00001e-06
 Reference value :  1.00003e-06
 Reference value :  1.00007e-06
 Reference value :  1.00010e-06
 Reference value :  1.00010e-06
 Reference value :  1.00011e-06
 Reference value :  1.00013e-06
 Reference value :  1.00016e-06
 Reference value :  1.00023e-06
 Reference value :  1.00037e-06
 Reference value :  1.00055e-06
 Reference value :  1.00093e-06
 Reference value :  1.00144e-06
 Reference value :  1.00199e-06
 Reference value :  1.00257e-06
 Reference value :  1.00323e-06
 Reference value :  1.00390e-06
 Reference value :  1.00469e-06
 Reference value :  1.00552e-06
 Reference value :  1.00638e-06
 Reference value :  1.00734e-06
 Reference value :  1.00819e-06
 Reference value :  1.00910e-06
 Reference value :  1.01004e-06
 Reference value :  1.01127e-06
 Reference value :  1.01298e-06
 Reference value :  1.01534e-06
 Reference value :  1.01800e-06
 Reference value :  1.02020e-06
 Reference value :  1.02209e-06
 Reference value :  1.02378e-06
 Reference value :  1.02553e-06
 Reference value :  1.02737e-06
 Reference value :  1.02955e-06
 Reference value :  1.03162e-06
 Reference value :  1.03460e-06
 Reference value :  1.03862e-06
 Reference value :  1.04535e-06
 Reference value :  1.05667e-06
 Reference value :  1.07598e-06
 Reference value :  1.10104e-06
 Reference value :  1.14324e-06
 Reference value :  1.22180e-06
 Reference value :  1.25010e-06
 Reference value :  1.25011e-06
 Reference value :  1.25013e-06
 Reference value :  1.25017e-06
 Reference value :  1.25020e-06
 Reference value :  1.25020e-06
 Reference value :  1.25020e-06
 Reference value :  1.25021e-06
 Reference value :  1.25021e-06
 Reference value :  1.25022e-06
 Reference value :  1.25025e-06
 Reference value :  1.25029e-06
 Reference value :  1.25039e-06
 Reference value :  1.25058e-06
 Reference value :  1.25091e-06
 Reference value :  1.25146e-06
 Reference value :  1.25209e-06
 Reference value :  1.25276e-06
 Reference value :  1.25350e-06
 Reference value :  1.25453e-06
 Reference value :  1.25532e-06
 Reference value :  1.25621e-06
 Reference value :  1.25711e-06
 Reference value :  1.25806e-06
 Reference value :  1.25942e-06
 Reference value :  1.26120e-06
 Reference value :  1.26347e-06
 Reference value :  1.26677e-06
 Reference value :  1.27121e-06
 Reference value :  1.28008e-06
 Reference value :  1.29783e-06
 Reference value :  1.32832e-06
 Reference value :  1.38929e-06
 Reference value :  1.50000e-06
 Reference value :  1.50001e-06
 Reference value :  1.50003e-06
 Reference value :  1.50007e-06
 Reference value :  1.50010e-06
 Reference value :  1.50010e-06
 Reference value :  1.50011e-06
 Reference value :  1.50013e-06
 Reference value :  1.50016e-06
 Reference value :  1.50023e-06
 Reference value :  1.50037e-06
 Reference value :  1.50055e-06
 Reference value :  1.50091e-06
 Reference value :  1.50142e-06
 Reference value :  1.50197e-06
 Reference value :  1.50256e-06
 Reference value :  1.50321e-06
 Reference value :  1.50389e-06
 Reference value :  1.50467e-06
 Reference value :  1.50551e-06
 Reference value :  1.50642e-06
 Reference value :  1.50762e-06
 Reference value :  1.50888e-06
 Reference value :  1.51014e-06
 Reference value :  1.51152e-06
 Reference value :  1.51314e-06
 Reference value :  1.51469e-06
 Reference value :  1.51630e-06
 Reference value :  1.51796e-06
 Reference value :  1.51981e-06
 Reference value :  1.52351e-06
 Reference value :  1.53090e-06
 Reference value :  1.54354e-06
 Reference value :  1.56881e-06
 Reference value :  1.61936e-06
 Reference value :  1.72045e-06
 Reference value :  1.75010e-06
 Reference value :  1.75011e-06
 Reference value :  1.75013e-06
 Reference value :  1.75017e-06
 Reference value :  1.75020e-06
 Reference value :  1.75020e-06
 Reference value :  1.75020e-06
 Reference value :  1.75021e-06
 Reference value :  1.75021e-06
 Reference value :  1.75022e-06
 Reference value :  1.75025e-06
 Reference value :  1.75029e-06
 Reference value :  1.75039e-06
 Reference value :  1.75058e-06
 Reference value :  1.75091e-06
 Reference value :  1.75146e-06
 Reference value :  1.75209e-06
 Reference value :  1.75276e-06
 Reference value :  1.75350e-06
 Reference value :  1.75452e-06
 Reference value :  1.75529e-06
 Reference value :  1.75618e-06
 Reference value :  1.75693e-06
 Reference value :  1.75778e-06
 Reference value :  1.75880e-06
 Reference value :  1.75993e-06
 Reference value :  1.76221e-06
 Reference value :  1.76468e-06
 Reference value :  1.76877e-06
 Reference value :  1.77411e-06
 Reference value :  1.78481e-06
 Reference value :  1.80619e-06
 Reference value :  1.84897e-06
 Reference value :  1.93451e-06
 Reference value :  2.00000e-06
 Reference value :  2.00001e-06
 Reference value :  2.00003e-06
 Reference value :  2.00007e-06
 Reference value :  2.00010e-06
 Reference value :  2.00010e-06
 Reference value :  2.00011e-06
 Reference value :  2.00013e-06
 Reference value :  2.00016e-06
 Reference value :  2.00023e-06
 Reference value :  2.00037e-06
 Reference value :  2.00054e-06
 Reference value :  2.00090e-06
 Reference value :  2.00141e-06
 Reference value :  2.00196e-06
 Reference value :  2.00256e-06
 Reference value :  2.00320e-06
 Reference value :  2.00389e-06
 Reference value :  2.00466e-06
 Reference value :  2.00549e-06
 Reference value :  2.00639e-06
 Reference value :  2.00728e-06
 Reference value :  2.00810e-06
 Reference value :  2.00899e-06
 Reference value :  2.00992e-06
 Reference value :  2.01113e-06
 Reference value :  2.01281e-06
 Reference value :  2.01530e-06
 Reference value :  2.01803e-06
 Reference value :  2.02020e-06
 Reference value :  2.02212e-06
 Reference value :  2.02402e-06
 Reference value :  2.02584e-06
 Reference value :  2.02778e-06
 Reference value :  2.02996e-06
 Reference value :  2.03219e-06
 Reference value :  2.03497e-06
 Reference value :  2.03909e-06
 Reference value :  2.04407e-06
 Reference value :  2.04872e-06
 Reference value :  2.05393e-06
 Reference value :  2.05790e-06
 Reference value :  2.06212e-06
 Reference value :  2.06656e-06
 Reference value :  2.07103e-06
 Reference value :  2.07563e-06
 Reference value :  2.08256e-06
 Reference value :  2.08890e-06
 Reference value :  2.09527e-06
 Reference value :  2.10284e-06
 Reference value :  2.11799e-06
 Reference value :  2.14829e-06
 Reference value :  2.19833e-06
 Reference value :  2.25010e-06
 Reference value :  2.25011e-06
 Reference value :  2.25013e-06
 Reference value :  2.25017e-06
 Reference value :  2.25020e-06
 Reference value :  2.25020e-06
 Reference value :  2.25020e-06
 Reference value :  2.25021e-06
 Reference value :  2.25021e-06
 Reference value :  2.25022e-06
 Reference value :  2.25025e-06
 Reference value :  2.25030e-06
 Reference value :  2.25039e-06
 Reference value :  2.25059e-06
 Reference value :  2.25093e-06
 Reference value :  2.25147e-06
 Reference value :  2.25211e-06
 Reference value :  2.25277e-06
 Reference value :  2.25351e-06
 Reference value :  2.25454e-06
 Reference value :  2.25528e-06
 Reference value :  2.25612e-06
 Reference value :  2.25703e-06
 Reference value :  2.25796e-06
 Reference value :  2.25924e-06
 Reference value :  2.26114e-06
 Reference value :  2.26330e-06
 Reference value :  2.26658e-06
 Reference value :  2.27082e-06
 Reference value :  2.27931e-06
 Reference value :  2.29628e-06
 Reference value :  2.32608e-06
 Reference value :  2.38569e-06
 Reference value :  2.47885e-06
 Reference value :  2.50000e-06
 Reference value :  2.50001e-06
 Reference value :  2.50003e-06
 Reference value :  2.50007e-06
 Reference value :  2.50010e-06
 Reference value :  2.50010e-06
 Reference value :  2.50011e-06
 Reference value :  2.50013e-06
 Reference value :  2.50016e-06
 Reference value :  2.50023e-06
 Reference value :  2.50037e-06
 Reference value :  2.50054e-06
 Reference value :  2.50090e-06
 Reference value :  2.50141e-06
 Reference value :  2.50196e-06
 Reference value :  2.50252e-06
 Reference value :  2.50322e-06
 Reference value :  2.50387e-06
 Reference value :  2.50464e-06
 Reference value :  2.50546e-06
 Reference value :  2.50637e-06
 Reference value :  2.50760e-06
 Reference value :  2.50883e-06
 Reference value :  2.51017e-06
 Reference value :  2.51166e-06
 Reference value :  2.51314e-06
 Reference value :  2.51459e-06
 Reference value :  2.51613e-06
 Reference value :  2.51767e-06
 Reference value :  2.51945e-06
 Reference value :  2.52300e-06
 Reference value :  2.52988e-06
 Reference value :  2.54243e-06
 Reference value :  2.56753e-06
 Reference value :  2.61774e-06
 Reference value :  2.71815e-06
 Reference value :  2.75010e-06
 Reference value :  2.75011e-06
 Reference value :  2.75013e-06
 Reference value :  2.75017e-06
 Reference value :  2.75020e-06
 Reference value :  2.75020e-06
 Reference value :  2.75020e-06
 Reference value :  2.75021e-06
 Reference value :  2.75021e-06
 Reference value :  2.75022e-06
 Reference value :  2.75025e-06
 Reference value :  2.75029e-06
 Reference value :  2.75039e-06
 Reference value :  2.75058e-06
 Reference value :  2.75091e-06
 Reference value :  2.75146e-06
 Reference value :  2.75208e-06
 Reference value :  2.75276e-06
 Reference value :  2.75349e-06
 Reference value :  2.75452e-06
 Reference value :  2.75529e-06
 Reference value :  2.75617e-06
 Reference value :  2.75693e-06
 Reference value :  2.75778e-06
 Reference value :  2.75880e-06
 Reference value :  2.75994e-06
 Reference value :  2.76106e-06
 Reference value :  2.76281e-06
 Reference value :  2.76454e-06
 Reference value :  2.76713e-06
 Reference value :  2.77017e-06
 Reference value :  2.77478e-06
 Reference value :  2.78374e-06
 Reference value :  2.79591e-06
 Reference value :  2.81974e-06
 Reference value :  2.86739e-06
 Reference value :  2.95654e-06
 Reference value :  3.00000e-06
 Reference value :  3.00001e-06
 Reference value :  3.00003e-06
 Reference value :  3.00007e-06
 Reference value :  3.00010e-06
 Reference value :  3.00010e-06
 Reference value :  3.00011e-06
 Reference value :  3.00013e-06
 Reference value :  3.00016e-06
 Reference value :  3.00023e-06
 Reference value :  3.00037e-06
 Reference value :  3.00055e-06
 Reference value :  3.00091e-06
 Reference value :  3.00142e-06
 Reference value :  3.00197e-06
 Reference value :  3.00256e-06
 Reference value :  3.00321e-06
 Reference value :  3.00389e-06
 Reference value :  3.00465e-06
 Reference value :  3.00549e-06
 Reference value :  3.00634e-06
 Reference value :  3.00712e-06
 Reference value :  3.00795e-06
 Reference value :  3.00883e-06
 Reference value :  3.00973e-06
 Reference value :  3.01099e-06
 Reference value :  3.01249e-06
 Reference value :  3.01479e-06
 Reference value :  3.01631e-06
 Reference value :  3.01804e-06
 Reference value :  3.01985e-06
 Reference value :  3.02129e-06
 Reference value :  3.02273e-06
 Reference value :  3.02444e-06
 Reference value :  3.02606e-06
 Reference value :  3.02757e-06
 Reference value :  3.02953e-06
 Reference value :  3.03183e-06
 Reference value :  3.03446e-06
 Reference value :  3.03875e-06
 Reference value :  3.04479e-06
 Reference value :  3.05462e-06
 Reference value :  3.07081e-06
 Reference value :  3.09399e-06
 Reference value :  3.11638e-06
 Reference value :  3.14386e-06
 Reference value :  3.16780e-06
 Reference value :  3.19494e-06
 Reference value :  3.22091e-06
 Reference value :  3.24525e-06
 Reference value :  3.25010e-06
 Reference value :  3.25011e-06
 Reference value :  3.25013e-06
 Reference value :  3.25017e-06
 Reference value :  3.25020e-06
 Reference value :  3.25020e-06
 Reference value :  3.25020e-06
 Reference value :  3.25021e-06
 Reference value :  3.25021e-06
 Reference value :  3.25022e-06
 Reference value :  3.25025e-06
 Reference value :  3.25029e-06
 Reference value :  3.25039e-06
 Reference value :  3.25058e-06
 Reference value :  3.25091e-06
 Reference value :  3.25146e-06
 Reference value :  3.25208e-06
 Reference value :  3.25275e-06
 Reference value :  3.25349e-06
 Reference value :  3.25452e-06
 Reference value :  3.25528e-06
 Reference value :  3.25616e-06
 Reference value :  3.25704e-06
 Reference value :  3.25797e-06
 Reference value :  3.25931e-06
 Reference value :  3.26105e-06
 Reference value :  3.26330e-06
 Reference value :  3.26648e-06
 Reference value :  3.27082e-06
 Reference value :  3.27952e-06
 Reference value :  3.29658e-06
 Reference value :  3.32592e-06
 Reference value :  3.38460e-06
 Reference value :  3.49341e-06
 Reference value :  3.50000e-06
 Reference value :  3.50001e-06
 Reference value :  3.50003e-06
 Reference value :  3.50007e-06
 Reference value :  3.50010e-06
 Reference value :  3.50010e-06
 Reference value :  3.50011e-06
 Reference value :  3.50013e-06
 Reference value :  3.50016e-06
 Reference value :  3.50023e-06
 Reference value :  3.50037e-06
 Reference value :  3.50054e-06
 Reference value :  3.50090e-06
 Reference value :  3.50141e-06
 Reference value :  3.50196e-06
 Reference value :  3.50252e-06
 Reference value :  3.50322e-06
 Reference value :  3.50387e-06
 Reference value :  3.50464e-06
 Reference value :  3.50547e-06
 Reference value :  3.50632e-06
 Reference value :  3.50757e-06
 Reference value :  3.50876e-06
 Reference value :  3.51012e-06
 Reference value :  3.51166e-06
 Reference value :  3.51309e-06
 Reference value :  3.51446e-06
 Reference value :  3.51594e-06
 Reference value :  3.51745e-06
 Reference value :  3.51920e-06
 Reference value :  3.52269e-06
 Reference value :  3.52802e-06
 Reference value :  3.53867e-06
 Reference value :  3.55998e-06
 Reference value :  3.60259e-06
 Reference value :  3.68783e-06
 Reference value :  3.75010e-06
 Reference value :  3.75011e-06
 Reference value :  3.75013e-06
 Reference value :  3.75017e-06
 Reference value :  3.75020e-06
 Reference value :  3.75020e-06
 Reference value :  3.75020e-06
 Reference value :  3.75021e-06
 Reference value :  3.75021e-06
 Reference value :  3.75022e-06
 Reference value :  3.75025e-06
 Reference value :  3.75029e-06
 Reference value :  3.75039e-06
 Reference value :  3.75058e-06
 Reference value :  3.75091e-06
 Reference value :  3.75146e-06
 Reference value :  3.75208e-06
 Reference value :  3.75275e-06
 Reference value :  3.75349e-06
 Reference value :  3.75452e-06
 Reference value :  3.75529e-06
 Reference value :  3.75617e-06
 Reference value :  3.75693e-06
 Reference value :  3.75778e-06
 Reference value :  3.75880e-06
 Reference value :  3.75994e-06
 Reference value :  3.76107e-06
 Reference value :  3.76280e-06
 Reference value :  3.76455e-06
 Reference value :  3.76714e-06
 Reference value :  3.77018e-06
 Reference value :  3.77479e-06
 Reference value :  3.78396e-06
 Reference value :  3.79639e-06
 Reference value :  3.82117e-06
 Reference value :  3.87071e-06
 Reference value :  3.96710e-06
 Reference value :  4.00000e-06
 Reference value :  4.00001e-06
 Reference value :  4.00003e-06
 Reference value :  4.00007e-06
 Reference value :  4.00010e-06
 Reference value :  4.00010e-06
 Reference value :  4.00011e-06
 Reference value :  4.00013e-06
 Reference value :  4.00016e-06
 Reference value :  4.00023e-06
 Reference value :  4.00037e-06
 Reference value :  4.00055e-06
 Reference value :  4.00091e-06
 Reference value :  4.00142e-06
 Reference value :  4.00197e-06
 Reference value :  4.00256e-06
 Reference value :  4.00321e-06
 Reference value :  4.00389e-06
 Reference value :  4.00465e-06
 Reference value :  4.00549e-06
 Reference value :  4.00626e-06
 Reference value :  4.00706e-06
 Reference value :  4.00787e-06
 Reference value :  4.00875e-06
 Reference value :  4.00965e-06
 Reference value :  4.01089e-06
 Reference value :  4.01238e-06
 Reference value :  4.01411e-06
 Reference value :  4.01580e-06
 Reference value :  4.01748e-06
 Reference value :  4.01938e-06
 Reference value :  4.02093e-06
 Reference value :  4.02248e-06
 Reference value :  4.02430e-06
 Reference value :  4.02602e-06
 Reference value :  4.02762e-06
 Reference value :  4.02970e-06
 Reference value :  4.03192e-06
 Reference value :  4.03468e-06
 Reference value :  4.03879e-06
 Reference value :  4.04459e-06
 Reference value :  4.05064e-06
 Reference value :  4.05699e-06
 Reference value :  4.06302e-06
 Reference value :  4.06690e-06
 Reference value :  4.07049e-06
 Reference value :  4.07352e-06
 Reference value :  4.07681e-06
 Reference value :  4.08170e-06
 Reference value :  4.08756e-06
 Reference value :  4.09612e-06
 Reference value :  4.10809e-06
 Reference value :  4.12519e-06
 Reference value :  4.15056e-06
 Reference value :  4.17730e-06
 Reference value :  4.21683e-06
 Reference value :  4.25010e-06
 Reference value :  4.25011e-06
 Reference value :  4.25013e-06
 Reference value :  4.25017e-06
 Reference value :  4.25020e-06
 Reference value :  4.25020e-06
 Reference value :  4.25020e-06
 Reference value :  4.25021e-06
 Reference value :  4.25021e-06
 Reference value :  4.25022e-06
 Reference value :  4.25025e-06
 Reference value :  4.25029e-06
 Reference value :  4.25039e-06
 Reference value :  4.25058e-06
 Reference value :  4.25091e-06
 Reference value :  4.25146e-06
 Reference value :  4.25208e-06
 Reference value :  4.25275e-06
 Reference value :  4.25349e-06
 Reference value :  4.25451e-06
 Reference value :  4.25529e-06
 Reference value :  4.25619e-06
 Reference value :  4.25708e-06
 Reference value :  4.25802e-06
 Reference value :  4.25940e-06
 Reference value :  4.26112e-06
 Reference value :  4.26341e-06
 Reference value :  4.26662e-06
 Reference value :  4.27105e-06
 Reference value :  4.27991e-06
 Reference value :  4.29683e-06
 Reference value :  4.32615e-06
 Reference value :  4.38478e-06
 Reference value :  4.49065e-06
 Reference value :  4.50000e-06
 Reference value :  4.50001e-06
 Reference value :  4.50003e-06
 Reference value :  4.50007e-06
 Reference value :  4.50010e-06
 Reference value :  4.50010e-06
 Reference value :  4.50011e-06
 Reference value :  4.50013e-06
 Reference value :  4.50016e-06
 Reference value :  4.50023e-06
 Reference value :  4.50037e-06
 Reference value :  4.50054e-06
 Reference value :  4.50090e-06
 Reference value :  4.50141e-06
 Reference value :  4.50196e-06
 Reference value :  4.50256e-06
 Reference value :  4.50320e-06
 Reference value :  4.50388e-06
 Reference value :  4.50466e-06
 Reference value :  4.50550e-06
 Reference value :  4.50636e-06
 Reference value :  4.50758e-06
 Reference value :  4.50880e-06
 Reference value :  4.51001e-06
 Reference value :  4.51131e-06
 Reference value :  4.51277e-06
 Reference value :  4.51414e-06
 Reference value :  4.51557e-06
 Reference value :  4.51705e-06
 Reference value :  4.51878e-06
 Reference value :  4.52221e-06
 Reference value :  4.52729e-06
 Reference value :  4.53746e-06
 Reference value :  4.55781e-06
 Reference value :  4.59850e-06
 Reference value :  4.67988e-06
 Reference value :  4.75010e-06
 Reference value :  4.75011e-06
 Reference value :  4.75013e-06
 Reference value :  4.75017e-06
 Reference value :  4.75020e-06
 Reference value :  4.75020e-06
 Reference value :  4.75020e-06
 Reference value :  4.75021e-06
 Reference value :  4.75021e-06
 Reference value :  4.75022e-06
 Reference value :  4.75025e-06
 Reference value :  4.75029e-06
 Reference value :  4.75039e-06
 Reference value :  4.75058e-06
 Reference value :  4.75091e-06
 Reference value :  4.75146e-06
 Reference value :  4.75208e-06
 Reference value :  4.75275e-06
 Reference value :  4.75349e-06
 Reference value :  4.75451e-06
 Reference value :  4.75527e-06
 Reference value :  4.75616e-06
 Reference value :  4.75692e-06
 Reference value :  4.75777e-06
 Reference value :  4.75878e-06
 Reference value :  4.75992e-06
 Reference value :  4.76218e-06
 Reference value :  4.76465e-06
 Reference value :  4.76872e-06
 Reference value :  4.77401e-06
 Reference value :  4.78460e-06
 Reference value :  4.80579e-06
 Reference value :  4.84655e-06
 Reference value :  4.92806e-06
 Reference value :  5.00000e-06
 Reference value :  5.00001e-06
 Reference value :  5.00003e-06
 Reference value :  5.00007e-06
 Reference value :  5.00010e-06
 Reference value :  5.00010e-06
 Reference value :  5.00011e-06
 Reference value :  5.00013e-06
 Reference value :  5.00016e-06
 Reference value :  5.00023e-06
 Reference value :  5.00037e-06
 Reference value :  5.00054e-06
 Reference value :  5.00090e-06
 Reference value :  5.00141e-06
 Reference value :  5.00196e-06
 Reference value :  5.00255e-06
 Reference value :  5.00321e-06
 Reference value :  5.00390e-06
 Reference value :  5.00467e-06
 Reference value :  5.00551e-06
 Reference value :  5.00642e-06
 Reference value :  5.00733e-06
 Reference value :  5.00809e-06
 Reference value :  5.00897e-06
 Reference value :  5.00996e-06
 Reference value :  5.01110e-06
 Reference value :  5.01297e-06
 Reference value :  5.01547e-06
 Reference value :  5.01804e-06
 Reference value :  5.02024e-06
 Reference value :  5.02198e-06
 Reference value :  5.02360e-06
 Reference value :  5.02530e-06
 Reference value :  5.02705e-06
 Reference value :  5.02903e-06
 Reference value :  5.03107e-06
 Reference value :  5.03409e-06
 Reference value :  5.03809e-06
 Reference value :  5.04319e-06
 Reference value :  5.04944e-06
 Reference value :  5.05770e-06
 Reference value :  5.06290e-06
 Reference value :  5.06821e-06
 Reference value :  5.07370e-06
 Reference value :  5.08022e-06
 Reference value :  5.08628e-06
 Reference value :  5.09395e-06
 Reference value :  5.10305e-06
 Reference value :  5.12099e-06
 Reference value :  5.14403e-06
 Reference value :  5.18326e-06
 Reference value :  5.25010e-06
 Reference value :  5.25011e-06
 Reference value :  5.25013e-06
 Reference value :  5.25017e-06
 Reference value :  5.25020e-06
 Reference value :  5.25020e-06
 Reference value :  5.25020e-06
 Reference value :  5.25021e-06
 Reference value :  5.25021e-06
 Reference value :  5.25022e-06
 Reference value :  5.25025e-06
 Reference value :  5.25030e-06
 Reference value :  5.25039e-06
 Reference value :  5.25059e-06
 Reference value :  5.25093e-06
 Reference value :  5.25147e-06
 Reference value :  5.25210e-06
 Reference value :  5.25276e-06
 Reference value :  5.25350e-06
 Reference value :  5.25453e-06
 Reference value :  5.25526e-06
 Reference value :  5.25612e-06
 Reference value :  5.25700e-06
 Reference value :  5.25793e-06
 Reference value :  5.25924e-06
 Reference value :  5.26107e-06
 Reference value :  5.26326e-06
 Reference value :  5.26646e-06
 Reference value :  5.27073e-06
 Reference value :  5.27928e-06
 Reference value :  5.29638e-06
 Reference value :  5.32543e-06
 Reference value :  5.38351e-06
 Reference value :  5.49274e-06
 Reference value :  5.50000e-06
 Reference value :  5.50001e-06
 Reference value :  5.50003e-06
 Reference value :  5.50007e-06
 Reference value :  5.50010e-06
 Reference value :  5.50010e-06
 Reference value :  5.50011e-06
 Reference value :  5.50013e-06
 Reference value :  5.50016e-06
 Reference value :  5.50023e-06
 Reference value :  5.50037e-06
 Reference value :  5.50054e-06
 Reference value :  5.50090e-06
 Reference value :  5.50141e-06
 Reference value :  5.50196e-06
 Reference value :  5.50252e-06
 Reference value :  5.50322e-06
 Reference value :  5.50387e-06
 Reference value :  5.50464e-06
 Reference value :  5.50547e-06
 Reference value :  5.50637e-06
 Reference value :  5.50760e-06
 Reference value :  5.50884e-06
 Reference value :  5.51008e-06
 Reference value :  5.51143e-06
 Reference value :  5.51308e-06
 Reference value :  5.51459e-06
 Reference value :  5.51617e-06
 Reference value :  5.51801e-06
 Reference value :  5.52005e-06
 Reference value :  5.52362e-06
 Reference value :  5.52879e-06
 Reference value :  5.53823e-06
 Reference value :  5.55536e-06
 Reference value :  5.58616e-06
 Reference value :  5.64553e-06
 Reference value :  5.75010e-06
 Reference value :  5.75011e-06
 Reference value :  5.75013e-06
 Reference value :  5.75017e-06
 Reference value :  5.75020e-06
 Reference value :  5.75020e-06
 Reference value :  5.75020e-06
 Reference value :  5.75021e-06
 Reference value :  5.75021e-06
 Reference value :  5.75022e-06
 Reference value :  5.75025e-06
 Reference value :  5.75029e-06
 Reference value :  5.75039e-06
 Reference value :  5.75058e-06
 Reference value :  5.75091e-06
 Reference value :  5.75146e-06
 Reference value :  5.75208e-06
 Reference value :  5.75275e-06
 Reference value :  5.75349e-06
 Reference value :  5.75451e-06
 Reference value :  5.75528e-06
 Reference value :  5.75617e-06
 Reference value :  5.75693e-06
 Reference value :  5.75778e-06
 Reference value :  5.75879e-06
 Reference value :  5.75992e-06
 Reference value :  5.76105e-06
 Reference value :  5.76278e-06
 Reference value :  5.76452e-06
 Reference value :  5.76711e-06
 Reference value :  5.77014e-06
 Reference value :  5.77473e-06
 Reference value :  5.78380e-06
 Reference value :  5.79611e-06
 Reference value :  5.82057e-06
 Reference value :  5.86950e-06
 Reference value :  5.96239e-06
 Reference value :  6.00000e-06
 Reference value :  6.00001e-06
 Reference value :  6.00003e-06
 Reference value :  6.00007e-06
 Reference value :  6.00010e-06
 Reference value :  6.00010e-06
 Reference value :  6.00011e-06
 Reference value :  6.00013e-06
 Reference value :  6.00016e-06
 Reference value :  6.00023e-06
 Reference value :  6.00037e-06
 Reference value :  6.00055e-06
 Reference value :  6.00091e-06
 Reference value :  6.00142e-06
 Reference value :  6.00197e-06
 Reference value :  6.00256e-06
 Reference value :  6.00321e-06
 Reference value :  6.00389e-06
 Reference value :  6.00466e-06
 Reference value :  6.00549e-06
 Reference value :  6.00634e-06
 Reference value :  6.00713e-06
 Reference value :  6.00784e-06
 Reference value :  6.00867e-06
 Reference value :  6.00959e-06
 Reference value :  6.01070e-06
 Reference value :  6.01224e-06
 Reference value :  6.01386e-06
 Reference value :  6.01552e-06
 Reference value :  6.01714e-06
 Reference value :  6.01880e-06
 Reference value :  6.02041e-06
 Reference value :  6.02163e-06
 Reference value :  6.02277e-06
 Reference value :  6.02411e-06
 Reference value :  6.02550e-06
 Reference value :  6.02677e-06
 Reference value :  6.02844e-06
 Reference value :  6.03032e-06
 Reference value :  6.03277e-06
 Reference value :  6.03626e-06
 Reference value :  6.04269e-06
 Reference value :  6.05249e-06
 Reference value :  6.06138e-06
 Reference value :  6.07110e-06
 Reference value :  6.08449e-06
 Reference value :  6.10334e-06
 Reference value :  6.12312e-06
 Reference value :  6.14200e-06
 Reference value :  6.16070e-06
 Reference value :  6.17995e-06
 Reference value :  6.20386e-06
 Reference value :  6.25010e-06
 Reference value :  6.25011e-06
 Reference value :  6.25013e-06
 Reference value :  6.25017e-06
 Reference value :  6.25020e-06
 Reference value :  6.25020e-06
 Reference value :  6.25020e-06
 Reference value :  6.25021e-06
 Reference value :  6.25021e-06
 Reference value :  6.25022e-06
 Reference value :  6.25025e-06
 Reference value :  6.25029e-06
 Reference value :  6.25039e-06
 Reference value :  6.25058e-06
 Reference value :  6.25092e-06
 Reference value :  6.25146e-06
 Reference value :  6.25208e-06
 Reference value :  6.25275e-06
 Reference value :  6.25349e-06
 Reference value :  6.25451e-06
 Reference value :  6.25527e-06
 Reference value :  6.25615e-06
 Reference value :  6.25703e-06
 Reference value :  6.25796e-06
 Reference value :  6.25931e-06
 Reference value :  6.26105e-06
 Reference value :  6.26330e-06
 Reference value :  6.26647e-06
 Reference value :  6.27082e-06
 Reference value :  6.27953e-06
 Reference value :  6.29630e-06
 Reference value :  6.32526e-06
 Reference value :  6.38318e-06
 Reference value :  6.48853e-06
 Reference value :  6.50000e-06
 Reference value :  6.50001e-06
 Reference value :  6.50003e-06
 Reference value :  6.50007e-06
 Reference value :  6.50010e-06
 Reference value :  6.50010e-06
 Reference value :  6.50011e-06
 Reference value :  6.50013e-06
 Reference value :  6.50016e-06
 Reference value :  6.50023e-06
 Reference value :  6.50037e-06
 Reference value :  6.50054e-06
 Reference value :  6.50090e-06
 Reference value :  6.50141e-06
 Reference value :  6.50196e-06
 Reference value :  6.50252e-06
 Reference value :  6.50322e-06
 Reference value :  6.50387e-06
 Reference value :  6.50464e-06
 Reference value :  6.50547e-06
 Reference value :  6.50632e-06
 Reference value :  6.50757e-06
 Reference value :  6.50876e-06
 Reference value :  6.51013e-06
 Reference value :  6.51168e-06
 Reference value :  6.51310e-06
 Reference value :  6.51455e-06
 Reference value :  6.51607e-06
 Reference value :  6.51790e-06
 Reference value :  6.51992e-06
 Reference value :  6.52357e-06
 Reference value :  6.52892e-06
 Reference value :  6.53880e-06
 Reference value :  6.55708e-06
 Reference value :  6.59015e-06
 Reference value :  6.65465e-06
 Reference value :  6.75010e-06
 Reference value :  6.75011e-06
 Reference value :  6.75013e-06
 Reference value :  6.75017e-06
 Reference value :  6.75020e-06
 Reference value :  6.75020e-06
 Reference value :  6.75020e-06
 Reference value :  6.75021e-06
 Reference value :  6.75021e-06
 Reference value :  6.75022e-06
 Reference value :  6.75025e-06
 Reference value :  6.75029e-06
 Reference value :  6.75039e-06
 Reference value :  6.75058e-06
 Reference value :  6.75091e-06
 Reference value :  6.75146e-06
 Reference value :  6.75208e-06
 Reference value :  6.75275e-06
 Reference value :  6.75349e-06
 Reference value :  6.75451e-06
 Reference value :  6.75528e-06
 Reference value :  6.75617e-06
 Reference value :  6.75693e-06
 Reference value :  6.75778e-06
 Reference value :  6.75879e-06
 Reference value :  6.75992e-06
 Reference value :  6.76106e-06
 Reference value :  6.76279e-06
 Reference value :  6.76454e-06
 Reference value :  6.76712e-06
 Reference value :  6.77016e-06
 Reference value :  6.77476e-06
 Reference value :  6.78393e-06
 Reference value :  6.79637e-06
 Reference value :  6.82121e-06
 Reference value :  6.87088e-06
 Reference value :  6.96939e-06
 Reference value :  7.00000e-06
 Reference value :  7.00001e-06
 Reference value :  7.00003e-06
 Reference value :  7.00007e-06
 Reference value :  7.00010e-06
 Reference value :  7.00010e-06
 Reference value :  7.00011e-06
 Reference value :  7.00013e-06
 Reference value :  7.00016e-06
 Reference value :  7.00023e-06
 Reference value :  7.00037e-06
 Reference value :  7.00055e-06
 Reference value :  7.00091e-06
 Reference value :  7.00142e-06
 Reference value :  7.00197e-06
 Reference value :  7.00256e-06
 Reference value :  7.00321e-06
 Reference value :  7.00389e-06
 Reference value :  7.00465e-06
 Reference value :  7.00549e-06
 Reference value :  7.00626e-06
 Reference value :  7.00707e-06
 Reference value :  7.00782e-06
 Reference value :  7.00870e-06
 Reference value :  7.00958e-06
 Reference value :  7.01074e-06
 Reference value :  7.01241e-06
 Reference value :  7.01427e-06
 Reference value :  7.01574e-06
 Reference value :  7.01732e-06
 Reference value :  7.01885e-06
 Reference value :  7.02042e-06
 Reference value :  7.02173e-06
 Reference value :  7.02302e-06
 Reference value :  7.02453e-06
 Reference value :  7.02602e-06
 Reference value :  7.02741e-06
 Reference value :  7.02919e-06
 Reference value :  7.03141e-06
 Reference value :  7.03384e-06
 Reference value :  7.03788e-06
 Reference value :  7.04348e-06
 Reference value :  7.04865e-06
 Reference value :  7.05663e-06
 Reference value :  7.06983e-06
 Reference value :  7.09221e-06
 Reference value :  7.12064e-06
 Reference value :  7.15504e-06
 Reference value :  7.17586e-06
 Reference value :  7.19894e-06
 Reference value :  7.22928e-06
 Reference value :  7.25010e-06
 Reference value :  7.25011e-06
 Reference value :  7.25013e-06
 Reference value :  7.25017e-06
 Reference value :  7.25020e-06
 Reference value :  7.25020e-06
 Reference value :  7.25020e-06
 Reference value :  7.25021e-06
 Reference value :  7.25021e-06
 Reference value :  7.25022e-06
 Reference value :  7.25025e-06
 Reference value :  7.25030e-06
 Reference value :  7.25039e-06
 Reference value :  7.25059e-06
 Reference value :  7.25093e-06
 Reference value :  7.25147e-06
 Reference value :  7.25211e-06
 Reference value :  7.25276e-06
 Reference value :  7.25351e-06
 Reference value :  7.25453e-06
 Reference value :  7.25527e-06
 Reference value :  7.25611e-06
 Reference value :  7.25700e-06
 Reference value :  7.25793e-06
 Reference value :  7.25921e-06
 Reference value :  7.26111e-06
 Reference value :  7.26326e-06
 Reference value :  7.26651e-06
 Reference value :  7.27075e-06
 Reference value :  7.27922e-06
 Reference value :  7.29615e-06
 Reference value :  7.31513e-06
 Reference value :  7.33551e-06
 Reference value :  7.35408e-06
 Reference value :  7.37780e-06
 Reference value :  7.42524e-06
 Reference value :  7.48878e-06
 Reference value :  7.50000e-06
 Reference value :  7.50001e-06
 Reference value :  7.50003e-06
 Reference value :  7.50007e-06
 Reference value :  7.50010e-06
 Reference value :  7.50010e-06
 Reference value :  7.50011e-06
 Reference value :  7.50013e-06
 Reference value :  7.50016e-06
 Reference value :  7.50023e-06
 Reference value :  7.50037e-06
 Reference value :  7.50055e-06
 Reference value :  7.50091e-06
 Reference value :  7.50142e-06
 Reference value :  7.50196e-06
 Reference value :  7.50251e-06
 Reference value :  7.50321e-06
 Reference value :  7.50385e-06
 Reference value :  7.50464e-06
 Reference value :  7.50547e-06
 Reference value :  7.50638e-06
 Reference value :  7.50763e-06
 Reference value :  7.50886e-06
 Reference value :  7.51022e-06
 Reference value :  7.51175e-06
 Reference value :  7.51322e-06
 Reference value :  7.51463e-06
 Reference value :  7.51613e-06
 Reference value :  7.51774e-06
 Reference value :  7.51957e-06
 Reference value :  7.52295e-06
 Reference value :  7.52785e-06
 Reference value :  7.53756e-06
 Reference value :  7.55580e-06
 Reference value :  7.59044e-06
 Reference value :  7.65970e-06
 Reference value :  7.75010e-06
 Reference value :  7.75011e-06
 Reference value :  7.75013e-06
 Reference value :  7.75017e-06
 Reference value :  7.75020e-06
 Reference value :  7.75020e-06
 Reference value :  7.75020e-06
 Reference value :  7.75021e-06
 Reference value :  7.75021e-06
 Reference value :  7.75022e-06
 Reference value :  7.75025e-06
 Reference value :  7.75029e-06
 Reference value :  7.75039e-06
 Reference value :  7.75058e-06
 Reference value :  7.75092e-06
 Reference value :  7.75146e-06
 Reference value :  7.75209e-06
 Reference value :  7.75276e-06
 Reference value :  7.75350e-06
 Reference value :  7.75452e-06
 Reference value :  7.75528e-06
 Reference value :  7.75615e-06
 Reference value :  7.75690e-06
 Reference value :  7.75774e-06
 Reference value :  7.75875e-06
 Reference value :  7.75988e-06
 Reference value :  7.76100e-06
 Reference value :  7.76275e-06
 Reference value :  7.76446e-06
 Reference value :  7.76707e-06
 Reference value :  7.77007e-06
 Reference value :  7.77467e-06
 Reference value :  7.78354e-06
 Reference value :  7.79559e-06
 Reference value :  7.81886e-06
 Reference value :  7.86541e-06
 Reference value :  7.95286e-06
 Reference value :  8.00000e-06
 Reference value :  8.00001e-06
 Reference value :  8.00003e-06
 Reference value :  8.00007e-06
 Reference value :  8.00010e-06
 Reference value :  8.00010e-06
 Reference value :  8.00011e-06
 Reference value :  8.00013e-06
 Reference value :  8.00016e-06
 Reference value :  8.00023e-06
 Reference value :  8.00037e-06
 Reference value :  8.00055e-06
 Reference value :  8.00091e-06
 Reference value :  8.00142e-06
 Reference value :  8.00196e-06
 Reference value :  8.00255e-06
 Reference value :  8.00320e-06
 Reference value :  8.00387e-06
 Reference value :  8.00465e-06
 Reference value :  8.00548e-06
 Reference value :  8.00633e-06
 Reference value :  8.00713e-06
 Reference value :  8.00789e-06
 Reference value :  8.00878e-06
 Reference value :  8.00967e-06
 Reference value :  8.01084e-06
 Reference value :  8.01252e-06
 Reference value :  8.01445e-06
 Reference value :  8.01599e-06
 Reference value :  8.01760e-06
 Reference value :  8.01919e-06
 Reference value :  8.02093e-06
 Reference value :  8.02281e-06
 Reference value :  8.02496e-06
 Reference value :  8.02829e-06
 Reference value :  8.03148e-06
 Reference value :  8.03619e-06
 Reference value :  8.03933e-06
 Reference value :  8.04273e-06
 Reference value :  8.04643e-06
 Reference value :  8.05041e-06
 Reference value :  8.05725e-06
 Reference value :  8.06693e-06
 Reference value :  8.08149e-06
 Reference value :  8.10500e-06
 Reference value :  8.14323e-06
 Reference value :  8.19662e-06
 Reference value :  8.25010e-06
 Reference value :  8.25011e-06
 Reference value :  8.25013e-06
 Reference value :  8.25017e-06
 Reference value :  8.25020e-06
 Reference value :  8.25020e-06
 Reference value :  8.25020e-06
 Reference value :  8.25021e-06
 Reference value :  8.25021e-06
 Reference value :  8.25022e-06
 Reference value :  8.25025e-06
 Reference value :  8.25030e-06
 Reference value :  8.25039e-06
 Reference value :  8.25059e-06
 Reference value :  8.25098e-06
 Reference value :  8.25148e-06
 Reference value :  8.25216e-06
 Reference value :  8.25280e-06
 Reference value :  8.25356e-06
 Reference value :  8.25460e-06
 Reference value :  8.25559e-06
 Reference value :  8.25697e-06
 Reference value :  8.25860e-06
 Reference value :  8.26009e-06
 Reference value :  8.26262e-06
 Reference value :  8.26531e-06
 Reference value :  8.26976e-06
 Reference value :  8.27659e-06
 Reference value :  8.29026e-06
 Reference value :  8.31760e-06
 Reference value :  8.36998e-06
 Reference value :  8.47473e-06
 Reference value :  8.50000e-06
No. of Data Rows : 1352
ngspice-44 done
