
Note: Compatibility modes selected: hs a


Circuit: ** sch_path: /home/audrey/cace/sar-adc-using-sky130-pdk/runs/run_2025-08-29_18-41-33/parameters/power/run_1/power_consumption.sch

option SCALE: Scale is set to 1e-06 for instance and model parameters
option SCALE: Scale is set to 1e-06 for instance and model parameters
option SCALE: Scale is set to 1e-06 for instance and model parameters
option SCALE: Scale is set to 1e-06 for instance and model parameters
Doing analysis at TEMP = 27.000000 and TNOM = 27.000000

Using KLU as Direct Linear Solver
Operating point simulation skipped by 'uic',
  now using transient initial conditions.
 Reference value :  5.00000e-12
 Reference value :  5.13141e-12
 Reference value :  5.39422e-12
 Reference value :  5.91986e-12
 Reference value :  6.97112e-12
 Reference value :  8.83438e-12
 Reference value :  1.18606e-11
 Reference value :  1.73194e-11
 Reference value :  2.79575e-11
 Reference value :  4.12447e-11
 Reference value :  6.55392e-11
 Reference value :  9.45724e-11
 Reference value :  1.46314e-10
 Reference value :  2.06928e-10
 Reference value :  3.28157e-10
 Reference value :  4.63278e-10
 Reference value :  5.00000e-10
 Reference value :  5.04465e-10
 Reference value :  5.13396e-10
 Reference value :  5.31258e-10
 Reference value :  5.66981e-10
 Reference value :  6.38427e-10
 Reference value :  7.81318e-10
 Reference value :  1.06710e-09
 Reference value :  1.63867e-09
 Reference value :  2.78180e-09
 Reference value :  4.16674e-09
 Reference value :  6.58259e-09
 Reference value :  1.05615e-08
 Reference value :  1.58918e-08
 Reference value :  2.51723e-08
 Reference value :  3.67146e-08
 Reference value :  5.41135e-08
 Reference value :  7.98054e-08
 Reference value :  1.31189e-07
 Reference value :  2.33957e-07
 Reference value :  4.39492e-07
 Reference value :  5.00000e-07
 Reference value :  5.30570e-07
 Reference value :  5.91709e-07
 Reference value :  7.13988e-07
 Reference value :  9.58545e-07
 Reference value :  1.00050e-06
 Reference value :  1.00055e-06
 Reference value :  1.00065e-06
 Reference value :  1.00085e-06
 Reference value :  1.00100e-06
 Reference value :  1.00103e-06
 Reference value :  1.00110e-06
 Reference value :  1.00124e-06
 Reference value :  1.00151e-06
 Reference value :  1.00198e-06
 Reference value :  1.00254e-06
 Reference value :  1.00339e-06
 Reference value :  1.00466e-06
 Reference value :  1.00681e-06
 Reference value :  1.01027e-06
 Reference value :  1.01720e-06
 Reference value :  1.02566e-06
 Reference value :  1.03550e-06
 Reference value :  1.04546e-06
 Reference value :  1.05776e-06
 Reference value :  1.07514e-06
 Reference value :  1.09190e-06
 Reference value :  1.10780e-06
 Reference value :  1.12003e-06
 Reference value :  1.13003e-06
 Reference value :  1.14032e-06
 Reference value :  1.14719e-06
 Reference value :  1.15409e-06
 Reference value :  1.16008e-06
 Reference value :  1.16494e-06
 Reference value :  1.16984e-06
 Reference value :  1.17451e-06
 Reference value :  1.17906e-06
 Reference value :  1.18380e-06
 Reference value :  1.18938e-06
 Reference value :  1.19509e-06
 Reference value :  1.20427e-06
 Reference value :  1.21538e-06
 Reference value :  1.22641e-06
 Reference value :  1.23420e-06
 Reference value :  1.24225e-06
 Reference value :  1.25354e-06
 Reference value :  1.26510e-06
 Reference value :  1.28302e-06
 Reference value :  1.30174e-06
 Reference value :  1.31360e-06
 Reference value :  1.32594e-06
 Reference value :  1.33481e-06
 Reference value :  1.34667e-06
 Reference value :  1.37037e-06
 Reference value :  1.37421e-06
 Reference value :  1.38188e-06
 Reference value :  1.39723e-06
 Reference value :  1.42478e-06
 Reference value :  1.45082e-06
 Reference value :  1.45391e-06
 Reference value :  1.46008e-06
 Reference value :  1.47242e-06
 Reference value :  1.48609e-06
 Reference value :  1.49987e-06
 Reference value :  1.51731e-06
 Reference value :  1.53407e-06
 Reference value :  1.55418e-06
 Reference value :  1.57470e-06
 Reference value :  1.61149e-06
 Reference value :  1.65809e-06
 Reference value :  1.73808e-06
 Reference value :  1.86810e-06
 Reference value :  2.00000e-06
 Reference value :  2.00005e-06
 Reference value :  2.00015e-06
 Reference value :  2.00035e-06
 Reference value :  2.00050e-06
 Reference value :  2.00051e-06
 Reference value :  2.00053e-06
 Reference value :  2.00056e-06
 Reference value :  2.00064e-06
 Reference value :  2.00079e-06
 Reference value :  2.00108e-06
 Reference value :  2.00167e-06
 Reference value :  2.00255e-06
 Reference value :  2.00379e-06
 Reference value :  2.00565e-06
 Reference value :  2.00797e-06
 Reference value :  2.01095e-06
 Reference value :  2.01437e-06
 Reference value :  2.02121e-06
 Reference value :  2.03488e-06
 Reference value :  2.06222e-06
 Reference value :  2.10972e-06
 Reference value :  2.15885e-06
 Reference value :  2.19927e-06
 Reference value :  2.23311e-06
 Reference value :  2.26799e-06
 Reference value :  2.30439e-06
 Reference value :  2.34183e-06
 Reference value :  2.38646e-06
 Reference value :  2.43689e-06
 Reference value :  2.49923e-06
 Reference value :  2.57684e-06
 Reference value :  2.67572e-06
 Reference value :  2.80600e-06
 Reference value :  2.97820e-06
 Reference value :  3.00050e-06
 Reference value :  3.00055e-06
 Reference value :  3.00065e-06
 Reference value :  3.00085e-06
 Reference value :  3.00100e-06
 Reference value :  3.00103e-06
 Reference value :  3.00110e-06
 Reference value :  3.00123e-06
 Reference value :  3.00149e-06
 Reference value :  3.00181e-06
 Reference value :  3.00217e-06
 Reference value :  3.00276e-06
 Reference value :  3.00382e-06
 Reference value :  3.00596e-06
 Reference value :  3.01023e-06
 Reference value :  3.01877e-06
 Reference value :  3.03586e-06
 Reference value :  3.05928e-06
 Reference value :  3.09295e-06
 Reference value :  3.13096e-06
 Reference value :  3.17492e-06
 Reference value :  3.20457e-06
 Reference value :  3.23359e-06
 Reference value :  3.26572e-06
 Reference value :  3.29950e-06
 Reference value :  3.34033e-06
 Reference value :  3.38834e-06
 Reference value :  3.44828e-06
 Reference value :  3.52462e-06
 Reference value :  3.62308e-06
 Reference value :  3.73140e-06
 Reference value :  3.80521e-06
 Reference value :  3.87425e-06
 Reference value :  3.93689e-06
 Reference value :  3.99766e-06
 Reference value :  4.00000e-06
 Reference value :  4.00005e-06
 Reference value :  4.00015e-06
 Reference value :  4.00035e-06
 Reference value :  4.00050e-06
 Reference value :  4.00051e-06
 Reference value :  4.00053e-06
 Reference value :  4.00056e-06
 Reference value :  4.00064e-06
 Reference value :  4.00078e-06
 Reference value :  4.00108e-06
 Reference value :  4.00166e-06
 Reference value :  4.00283e-06
 Reference value :  4.00515e-06
 Reference value :  4.00757e-06
 Reference value :  4.01165e-06
 Reference value :  4.01675e-06
 Reference value :  4.02373e-06
 Reference value :  4.03171e-06
 Reference value :  4.04537e-06
 Reference value :  4.06888e-06
 Reference value :  4.10951e-06
 Reference value :  4.19076e-06
 Reference value :  4.34090e-06
 Reference value :  4.50148e-06
 Reference value :  4.75068e-06
 Reference value :  5.00050e-06
 Reference value :  5.00055e-06
 Reference value :  5.00065e-06
 Reference value :  5.00085e-06
 Reference value :  5.00100e-06
 Reference value :  5.00103e-06
 Reference value :  5.00109e-06
 Reference value :  5.00120e-06
 Reference value :  5.00143e-06
 Reference value :  5.00172e-06
 Reference value :  5.00211e-06
 Reference value :  5.00266e-06
 Reference value :  5.00377e-06
 Reference value :  5.00598e-06
 Reference value :  5.01040e-06
 Reference value :  5.01924e-06
 Reference value :  5.03693e-06
 Reference value :  5.06456e-06
 Reference value :  5.09832e-06
 Reference value :  5.14522e-06
 Reference value :  5.20853e-06
 Reference value :  5.30242e-06
 Reference value :  5.43526e-06
 Reference value :  5.57667e-06
 Reference value :  5.74116e-06
 Reference value :  5.85120e-06
 Reference value :  5.93666e-06
 Reference value :  6.00000e-06
 Reference value :  6.00005e-06
 Reference value :  6.00015e-06
 Reference value :  6.00035e-06
 Reference value :  6.00050e-06
 Reference value :  6.00051e-06
 Reference value :  6.00054e-06
 Reference value :  6.00058e-06
 Reference value :  6.00068e-06
 Reference value :  6.00087e-06
 Reference value :  6.00125e-06
 Reference value :  6.00200e-06
 Reference value :  6.00352e-06
 Reference value :  6.00535e-06
 Reference value :  6.00821e-06
 Reference value :  6.01208e-06
 Reference value :  6.01753e-06
 Reference value :  6.02445e-06
 Reference value :  6.03220e-06
 Reference value :  6.04769e-06
 Reference value :  6.07868e-06
 Reference value :  6.14065e-06
 Reference value :  6.22467e-06
 Reference value :  6.36235e-06
 Reference value :  6.55491e-06
 Reference value :  6.83908e-06
 Reference value :  7.00050e-06
 Reference value :  7.00055e-06
 Reference value :  7.00065e-06
 Reference value :  7.00085e-06
 Reference value :  7.00100e-06
 Reference value :  7.00103e-06
 Reference value :  7.00109e-06
 Reference value :  7.00122e-06
 Reference value :  7.00147e-06
 Reference value :  7.00177e-06
 Reference value :  7.00219e-06
 Reference value :  7.00275e-06
 Reference value :  7.00389e-06
 Reference value :  7.00615e-06
 Reference value :  7.01068e-06
 Reference value :  7.01973e-06
 Reference value :  7.03784e-06
 Reference value :  7.07405e-06
 Reference value :  7.13538e-06
 Reference value :  7.21427e-06
 Reference value :  7.27843e-06
 Reference value :  7.32941e-06
 Reference value :  7.37691e-06
 Reference value :  7.42771e-06
 Reference value :  7.47927e-06
 Reference value :  7.53186e-06
 Reference value :  7.58833e-06
 Reference value :  7.65127e-06
 Reference value :  7.72336e-06
 Reference value :  7.80927e-06
 Reference value :  7.91376e-06
 Reference value :  8.00000e-06
 Reference value :  8.00005e-06
 Reference value :  8.00015e-06
 Reference value :  8.00035e-06
 Reference value :  8.00050e-06
 Reference value :  8.00051e-06
 Reference value :  8.00053e-06
 Reference value :  8.00057e-06
 Reference value :  8.00066e-06
 Reference value :  8.00083e-06
 Reference value :  8.00117e-06
 Reference value :  8.00185e-06
 Reference value :  8.00321e-06
 Reference value :  8.00592e-06
 Reference value :  8.01136e-06
 Reference value :  8.02046e-06
 Reference value :  8.03014e-06
 Reference value :  8.04721e-06
 Reference value :  8.07790e-06
 Reference value :  8.10871e-06
 Reference value :  8.15279e-06
 Reference value :  8.20883e-06
 Reference value :  8.30693e-06
 Reference value :  8.36194e-06
 Reference value :  8.41888e-06
 Reference value :  8.47101e-06
 Reference value :  8.52899e-06
 Reference value :  8.61949e-06
 Reference value :  8.71996e-06
 Reference value :  8.84226e-06
 Reference value :  8.97510e-06
 Reference value :  9.00050e-06
 Reference value :  9.00055e-06
 Reference value :  9.00065e-06
 Reference value :  9.00085e-06
 Reference value :  9.00100e-06
 Reference value :  9.00103e-06
 Reference value :  9.00109e-06
 Reference value :  9.00122e-06
 Reference value :  9.00146e-06
 Reference value :  9.00176e-06
 Reference value :  9.00218e-06
 Reference value :  9.00274e-06
 Reference value :  9.00387e-06
 Reference value :  9.00613e-06
 Reference value :  9.01065e-06
 Reference value :  9.01970e-06
 Reference value :  9.03778e-06
 Reference value :  9.07395e-06
 Reference value :  9.10942e-06
 Reference value :  9.14682e-06
 Reference value :  9.20704e-06
 Reference value :  9.27022e-06
 Reference value :  9.39658e-06
 Reference value :  9.62578e-06
 Reference value :  1.00000e-05
 Reference value :  1.00000e-05
 Reference value :  1.00001e-05
 Reference value :  1.00003e-05
 Reference value :  1.00005e-05
 Reference value :  1.00005e-05
 Reference value :  1.00005e-05
 Reference value :  1.00006e-05
 Reference value :  1.00007e-05
 Reference value :  1.00008e-05
 Reference value :  1.00012e-05
 Reference value :  1.00019e-05
 Reference value :  1.00032e-05
 Reference value :  1.00059e-05
 Reference value :  1.00114e-05
 Reference value :  1.00205e-05
 Reference value :  1.00302e-05
 Reference value :  1.00475e-05
 Reference value :  1.00782e-05
 Reference value :  1.01091e-05
 Reference value :  1.01534e-05
 Reference value :  1.02095e-05
 Reference value :  1.03116e-05
 Reference value :  1.04603e-05
 Reference value :  1.07177e-05
 Reference value :  1.10005e-05
 Reference value :  1.10005e-05
 Reference value :  1.10006e-05
 Reference value :  1.10008e-05
 Reference value :  1.10010e-05
 Reference value :  1.10010e-05
 Reference value :  1.10011e-05
 Reference value :  1.10012e-05
 Reference value :  1.10015e-05
 Reference value :  1.10018e-05
 Reference value :  1.10022e-05
 Reference value :  1.10028e-05
 Reference value :  1.10039e-05
 Reference value :  1.10062e-05
 Reference value :  1.10107e-05
 Reference value :  1.10198e-05
 Reference value :  1.10380e-05
 Reference value :  1.10743e-05
 Reference value :  1.11256e-05
 Reference value :  1.11990e-05
 Reference value :  1.13047e-05
 Reference value :  1.14625e-05
 Reference value :  1.17541e-05
 Reference value :  1.20000e-05
 Reference value :  1.20000e-05
 Reference value :  1.20001e-05
 Reference value :  1.20003e-05
 Reference value :  1.20005e-05
 Reference value :  1.20005e-05
 Reference value :  1.20005e-05
 Reference value :  1.20006e-05
 Reference value :  1.20007e-05
 Reference value :  1.20008e-05
 Reference value :  1.20012e-05
 Reference value :  1.20018e-05
 Reference value :  1.20032e-05
 Reference value :  1.20059e-05
 Reference value :  1.20114e-05
 Reference value :  1.20205e-05
 Reference value :  1.20302e-05
 Reference value :  1.20475e-05
 Reference value :  1.20783e-05
 Reference value :  1.21092e-05
 Reference value :  1.21539e-05
 Reference value :  1.22099e-05
 Reference value :  1.23143e-05
 Reference value :  1.24645e-05
 Reference value :  1.27280e-05
 Reference value :  1.30005e-05
 Reference value :  1.30006e-05
 Reference value :  1.30007e-05
 Reference value :  1.30009e-05
 Reference value :  1.30010e-05
 Reference value :  1.30010e-05
 Reference value :  1.30011e-05
 Reference value :  1.30012e-05
 Reference value :  1.30015e-05
 Reference value :  1.30018e-05
 Reference value :  1.30022e-05
 Reference value :  1.30028e-05
 Reference value :  1.30039e-05
 Reference value :  1.30062e-05
 Reference value :  1.30107e-05
 Reference value :  1.30198e-05
 Reference value :  1.30380e-05
 Reference value :  1.30743e-05
 Reference value :  1.31256e-05
 Reference value :  1.31990e-05
 Reference value :  1.33047e-05
 Reference value :  1.34625e-05
 Reference value :  1.37541e-05
 Reference value :  1.40000e-05
 Reference value :  1.40000e-05
 Reference value :  1.40002e-05
 Reference value :  1.40004e-05
 Reference value :  1.40005e-05
 Reference value :  1.40005e-05
 Reference value :  1.40005e-05
 Reference value :  1.40006e-05
 Reference value :  1.40007e-05
 Reference value :  1.40008e-05
 Reference value :  1.40012e-05
 Reference value :  1.40018e-05
 Reference value :  1.40032e-05
 Reference value :  1.40059e-05
 Reference value :  1.40114e-05
 Reference value :  1.40205e-05
 Reference value :  1.40302e-05
 Reference value :  1.40475e-05
 Reference value :  1.40783e-05
 Reference value :  1.41092e-05
 Reference value :  1.41540e-05
 Reference value :  1.42100e-05
 Reference value :  1.43146e-05
 Reference value :  1.44650e-05
 Reference value :  1.47293e-05
 Reference value :  1.50005e-05
 Reference value :  1.50005e-05
 Reference value :  1.50007e-05
 Reference value :  1.50009e-05
 Reference value :  1.50010e-05
 Reference value :  1.50010e-05
 Reference value :  1.50011e-05
 Reference value :  1.50012e-05
 Reference value :  1.50015e-05
 Reference value :  1.50018e-05
 Reference value :  1.50022e-05
 Reference value :  1.50028e-05
 Reference value :  1.50039e-05
 Reference value :  1.50062e-05
 Reference value :  1.50107e-05
 Reference value :  1.50198e-05
 Reference value :  1.50380e-05
 Reference value :  1.50743e-05
 Reference value :  1.51257e-05
 Reference value :  1.51991e-05
 Reference value :  1.53049e-05
 Reference value :  1.54629e-05
 Reference value :  1.57549e-05
 Reference value :  1.60000e-05
 Reference value :  1.60000e-05
 Reference value :  1.60001e-05
 Reference value :  1.60004e-05
 Reference value :  1.60005e-05
 Reference value :  1.60005e-05
 Reference value :  1.60005e-05
 Reference value :  1.60006e-05
 Reference value :  1.60007e-05
 Reference value :  1.60008e-05
 Reference value :  1.60012e-05
 Reference value :  1.60018e-05
 Reference value :  1.60032e-05
 Reference value :  1.60059e-05
 Reference value :  1.60114e-05
 Reference value :  1.60205e-05
 Reference value :  1.60302e-05
 Reference value :  1.60475e-05
 Reference value :  1.60783e-05
 Reference value :  1.61092e-05
 Reference value :  1.61540e-05
 Reference value :  1.62100e-05
 Reference value :  1.63147e-05
 Reference value :  1.64652e-05
 Reference value :  1.67298e-05
 Reference value :  1.70005e-05
 Reference value :  1.70006e-05
 Reference value :  1.70007e-05
 Reference value :  1.70009e-05
 Reference value :  1.70010e-05
 Reference value :  1.70010e-05
 Reference value :  1.70011e-05
 Reference value :  1.70012e-05
 Reference value :  1.70015e-05
 Reference value :  1.70018e-05
 Reference value :  1.70022e-05
 Reference value :  1.70028e-05
 Reference value :  1.70039e-05
 Reference value :  1.70062e-05
 Reference value :  1.70107e-05
 Reference value :  1.70198e-05
 Reference value :  1.70380e-05
 Reference value :  1.70743e-05
 Reference value :  1.71257e-05
 Reference value :  1.71991e-05
 Reference value :  1.73050e-05
 Reference value :  1.74630e-05
 Reference value :  1.77553e-05
 Reference value :  1.80000e-05
 Reference value :  1.80001e-05
 Reference value :  1.80002e-05
 Reference value :  1.80004e-05
 Reference value :  1.80005e-05
 Reference value :  1.80005e-05
 Reference value :  1.80005e-05
 Reference value :  1.80006e-05
 Reference value :  1.80007e-05
 Reference value :  1.80008e-05
 Reference value :  1.80012e-05
 Reference value :  1.80018e-05
 Reference value :  1.80032e-05
 Reference value :  1.80059e-05
 Reference value :  1.80114e-05
 Reference value :  1.80205e-05
 Reference value :  1.80302e-05
 Reference value :  1.80475e-05
 Reference value :  1.80783e-05
 Reference value :  1.81092e-05
 Reference value :  1.81540e-05
 Reference value :  1.82100e-05
 Reference value :  1.83147e-05
 Reference value :  1.84652e-05
 Reference value :  1.87299e-05
 Reference value :  1.90005e-05
 Reference value :  1.90006e-05
 Reference value :  1.90007e-05
 Reference value :  1.90009e-05
 Reference value :  1.90010e-05
 Reference value :  1.90010e-05
 Reference value :  1.90011e-05
 Reference value :  1.90012e-05
 Reference value :  1.90015e-05
 Reference value :  1.90018e-05
 Reference value :  1.90022e-05
 Reference value :  1.90028e-05
 Reference value :  1.90039e-05
 Reference value :  1.90062e-05
 Reference value :  1.90107e-05
 Reference value :  1.90198e-05
 Reference value :  1.90380e-05
 Reference value :  1.90743e-05
 Reference value :  1.91257e-05
 Reference value :  1.91992e-05
 Reference value :  1.93050e-05
 Reference value :  1.94631e-05
 Reference value :  1.97555e-05
 Reference value :  2.00000e-05
 Reference value :  2.00001e-05
 Reference value :  2.00002e-05
 Reference value :  2.00004e-05
 Reference value :  2.00005e-05
 Reference value :  2.00005e-05
 Reference value :  2.00005e-05
 Reference value :  2.00006e-05
 Reference value :  2.00007e-05
 Reference value :  2.00008e-05
 Reference value :  2.00012e-05
 Reference value :  2.00018e-05
 Reference value :  2.00032e-05
 Reference value :  2.00059e-05
 Reference value :  2.00114e-05
 Reference value :  2.00205e-05
 Reference value :  2.00302e-05
 Reference value :  2.00475e-05
 Reference value :  2.00783e-05
 Reference value :  2.01092e-05
 Reference value :  2.01540e-05
 Reference value :  2.02100e-05
 Reference value :  2.03147e-05
 Reference value :  2.04652e-05
 Reference value :  2.07299e-05
 Reference value :  2.10005e-05
 Reference value :  2.10005e-05
 Reference value :  2.10006e-05
 Reference value :  2.10008e-05
 Reference value :  2.10010e-05
 Reference value :  2.10010e-05
 Reference value :  2.10011e-05
 Reference value :  2.10012e-05
 Reference value :  2.10015e-05
 Reference value :  2.10018e-05
 Reference value :  2.10022e-05
 Reference value :  2.10028e-05
 Reference value :  2.10039e-05
 Reference value :  2.10062e-05
 Reference value :  2.10107e-05
 Reference value :  2.10198e-05
 Reference value :  2.10380e-05
 Reference value :  2.10743e-05
 Reference value :  2.11257e-05
 Reference value :  2.11992e-05
 Reference value :  2.13050e-05
 Reference value :  2.14631e-05
 Reference value :  2.17556e-05
 Reference value :  2.20000e-05
 Reference value :  2.20000e-05
 Reference value :  2.20001e-05
 Reference value :  2.20004e-05
 Reference value :  2.20005e-05
 Reference value :  2.20005e-05
 Reference value :  2.20005e-05
 Reference value :  2.20006e-05
 Reference value :  2.20007e-05
 Reference value :  2.20008e-05
 Reference value :  2.20012e-05
 Reference value :  2.20018e-05
 Reference value :  2.20032e-05
 Reference value :  2.20059e-05
 Reference value :  2.20114e-05
 Reference value :  2.20205e-05
 Reference value :  2.20302e-05
 Reference value :  2.20475e-05
 Reference value :  2.20783e-05
 Reference value :  2.21092e-05
 Reference value :  2.21540e-05
 Reference value :  2.22100e-05
 Reference value :  2.23147e-05
 Reference value :  2.24652e-05
 Reference value :  2.27299e-05
 Reference value :  2.30005e-05
 Reference value :  2.30005e-05
 Reference value :  2.30006e-05
 Reference value :  2.30008e-05
 Reference value :  2.30010e-05
 Reference value :  2.30010e-05
 Reference value :  2.30011e-05
 Reference value :  2.30012e-05
 Reference value :  2.30015e-05
 Reference value :  2.30018e-05
 Reference value :  2.30022e-05
 Reference value :  2.30028e-05
 Reference value :  2.30039e-05
 Reference value :  2.30062e-05
 Reference value :  2.30107e-05
 Reference value :  2.30198e-05
 Reference value :  2.30380e-05
 Reference value :  2.30743e-05
 Reference value :  2.31257e-05
 Reference value :  2.31992e-05
 Reference value :  2.33050e-05
 Reference value :  2.34631e-05
 Reference value :  2.37556e-05
 Reference value :  2.40000e-05
 Reference value :  2.40001e-05
 Reference value :  2.40002e-05
 Reference value :  2.40004e-05
 Reference value :  2.40005e-05
 Reference value :  2.40005e-05
 Reference value :  2.40005e-05
 Reference value :  2.40006e-05
 Reference value :  2.40007e-05
 Reference value :  2.40008e-05
 Reference value :  2.40012e-05
 Reference value :  2.40018e-05
 Reference value :  2.40032e-05
 Reference value :  2.40059e-05
 Reference value :  2.40114e-05
 Reference value :  2.40205e-05
 Reference value :  2.40302e-05
 Reference value :  2.40475e-05
 Reference value :  2.40783e-05
 Reference value :  2.41092e-05
 Reference value :  2.41540e-05
 Reference value :  2.42100e-05
 Reference value :  2.43147e-05
 Reference value :  2.44652e-05
 Reference value :  2.47299e-05
 Reference value :  2.50005e-05
 Reference value :  2.50005e-05
 Reference value :  2.50006e-05
 Reference value :  2.50008e-05
 Reference value :  2.50010e-05
 Reference value :  2.50010e-05
 Reference value :  2.50011e-05
 Reference value :  2.50012e-05
 Reference value :  2.50015e-05
 Reference value :  2.50018e-05
 Reference value :  2.50022e-05
 Reference value :  2.50028e-05
 Reference value :  2.50039e-05
 Reference value :  2.50062e-05
 Reference value :  2.50107e-05
 Reference value :  2.50198e-05
 Reference value :  2.50380e-05
 Reference value :  2.50743e-05
 Reference value :  2.51257e-05
 Reference value :  2.51992e-05
 Reference value :  2.53050e-05
 Reference value :  2.54632e-05
 Reference value :  2.57556e-05
 Reference value :  2.60000e-05
 Reference value :  2.60001e-05
 Reference value :  2.60002e-05
 Reference value :  2.60004e-05
 Reference value :  2.60005e-05
 Reference value :  2.60005e-05
 Reference value :  2.60005e-05
 Reference value :  2.60006e-05
 Reference value :  2.60007e-05
 Reference value :  2.60008e-05
 Reference value :  2.60012e-05
 Reference value :  2.60018e-05
 Reference value :  2.60032e-05
 Reference value :  2.60059e-05
 Reference value :  2.60114e-05
 Reference value :  2.60205e-05
 Reference value :  2.60302e-05
 Reference value :  2.60475e-05
 Reference value :  2.60783e-05
 Reference value :  2.61092e-05
 Reference value :  2.61540e-05
 Reference value :  2.62100e-05
 Reference value :  2.63147e-05
 Reference value :  2.64652e-05
 Reference value :  2.67298e-05
 Reference value :  2.70005e-05
 Reference value :  2.70006e-05
 Reference value :  2.70007e-05
 Reference value :  2.70009e-05
 Reference value :  2.70010e-05
 Reference value :  2.70010e-05
 Reference value :  2.70011e-05
 Reference value :  2.70012e-05
 Reference value :  2.70015e-05
 Reference value :  2.70018e-05
 Reference value :  2.70022e-05
 Reference value :  2.70028e-05
 Reference value :  2.70039e-05
 Reference value :  2.70062e-05
 Reference value :  2.70107e-05
 Reference value :  2.70198e-05
 Reference value :  2.70380e-05
 Reference value :  2.70743e-05
 Reference value :  2.71257e-05
 Reference value :  2.71992e-05
 Reference value :  2.73050e-05
 Reference value :  2.74632e-05
 Reference value :  2.77556e-05
 Reference value :  2.80000e-05
 Reference value :  2.80000e-05
 Reference value :  2.80001e-05
 Reference value :  2.80004e-05
 Reference value :  2.80005e-05
 Reference value :  2.80005e-05
 Reference value :  2.80005e-05
 Reference value :  2.80006e-05
 Reference value :  2.80007e-05
 Reference value :  2.80008e-05
 Reference value :  2.80012e-05
 Reference value :  2.80018e-05
 Reference value :  2.80032e-05
 Reference value :  2.80059e-05
 Reference value :  2.80114e-05
 Reference value :  2.80205e-05
 Reference value :  2.80302e-05
 Reference value :  2.80475e-05
 Reference value :  2.80783e-05
 Reference value :  2.81092e-05
 Reference value :  2.81540e-05
 Reference value :  2.82100e-05
 Reference value :  2.83147e-05
 Reference value :  2.84651e-05
 Reference value :  2.87296e-05
 Reference value :  2.90005e-05
 Reference value :  2.90006e-05
 Reference value :  2.90007e-05
 Reference value :  2.90009e-05
 Reference value :  2.90010e-05
 Reference value :  2.90010e-05
 Reference value :  2.90011e-05
 Reference value :  2.90012e-05
 Reference value :  2.90015e-05
 Reference value :  2.90018e-05
 Reference value :  2.90022e-05
 Reference value :  2.90028e-05
 Reference value :  2.90039e-05
 Reference value :  2.90062e-05
 Reference value :  2.90107e-05
 Reference value :  2.90198e-05
 Reference value :  2.90380e-05
 Reference value :  2.90743e-05
 Reference value :  2.91257e-05
 Reference value :  2.91992e-05
 Reference value :  2.93050e-05
 Reference value :  2.94632e-05
 Reference value :  2.97556e-05
 Reference value :  3.00000e-05
 Reference value :  3.00001e-05
 Reference value :  3.00002e-05
 Reference value :  3.00004e-05
 Reference value :  3.00005e-05
 Reference value :  3.00005e-05
 Reference value :  3.00005e-05
 Reference value :  3.00006e-05
 Reference value :  3.00007e-05
 Reference value :  3.00008e-05
 Reference value :  3.00012e-05
 Reference value :  3.00018e-05
 Reference value :  3.00032e-05
 Reference value :  3.00059e-05
 Reference value :  3.00114e-05
 Reference value :  3.00205e-05
 Reference value :  3.00302e-05
 Reference value :  3.00475e-05
 Reference value :  3.00783e-05
 Reference value :  3.01092e-05
 Reference value :  3.01540e-05
 Reference value :  3.02100e-05
 Reference value :  3.03147e-05
 Reference value :  3.04651e-05
 Reference value :  3.07295e-05
 Reference value :  3.10005e-05
 Reference value :  3.10005e-05
 Reference value :  3.10006e-05
 Reference value :  3.10008e-05
 Reference value :  3.10010e-05
 Reference value :  3.10010e-05
 Reference value :  3.10011e-05
 Reference value :  3.10012e-05
 Reference value :  3.10015e-05
 Reference value :  3.10018e-05
 Reference value :  3.10022e-05
 Reference value :  3.10028e-05
 Reference value :  3.10039e-05
 Reference value :  3.10062e-05
 Reference value :  3.10107e-05
 Reference value :  3.10198e-05
 Reference value :  3.10380e-05
 Reference value :  3.10743e-05
 Reference value :  3.11257e-05
 Reference value :  3.11992e-05
 Reference value :  3.13050e-05
 Reference value :  3.14632e-05
 Reference value :  3.17556e-05
 Reference value :  3.20000e-05
 Reference value :  3.20000e-05
 Reference value :  3.20001e-05
 Reference value :  3.20003e-05
 Reference value :  3.20005e-05
 Reference value :  3.20005e-05
 Reference value :  3.20005e-05
 Reference value :  3.20006e-05
 Reference value :  3.20007e-05
 Reference value :  3.20008e-05
 Reference value :  3.20012e-05
 Reference value :  3.20018e-05
 Reference value :  3.20032e-05
 Reference value :  3.20059e-05
 Reference value :  3.20114e-05
 Reference value :  3.20205e-05
 Reference value :  3.20302e-05
 Reference value :  3.20475e-05
 Reference value :  3.20783e-05
 Reference value :  3.21092e-05
 Reference value :  3.21540e-05
 Reference value :  3.22100e-05
 Reference value :  3.23147e-05
 Reference value :  3.24651e-05
 Reference value :  3.27296e-05
 Reference value :  3.30005e-05
 Reference value :  3.30006e-05
 Reference value :  3.30007e-05
 Reference value :  3.30009e-05
 Reference value :  3.30010e-05
 Reference value :  3.30010e-05
 Reference value :  3.30011e-05
 Reference value :  3.30012e-05
 Reference value :  3.30015e-05
 Reference value :  3.30018e-05
 Reference value :  3.30022e-05
 Reference value :  3.30028e-05
 Reference value :  3.30039e-05
 Reference value :  3.30062e-05
 Reference value :  3.30107e-05
 Reference value :  3.30198e-05
 Reference value :  3.30380e-05
 Reference value :  3.30743e-05
 Reference value :  3.31257e-05
 Reference value :  3.31992e-05
 Reference value :  3.33050e-05
 Reference value :  3.34632e-05
 Reference value :  3.37556e-05
 Reference value :  3.40000e-05
No. of Data Rows : 922
ngspice-44 done
