
Note: Compatibility modes selected: hs a


Circuit: ** sch_path: /home/ece/cace/sar-adc-using-sky130-pdk/runs/run_2025-09-12_20-49-03/parameters/dnl/run_2/sar_output_dnl.sch

option SCALE: Scale is set to 1e-06 for instance and model parameters
option SCALE: Scale is set to 1e-06 for instance and model parameters
option SCALE: Scale is set to 1e-06 for instance and model parameters
option SCALE: Scale is set to 1e-06 for instance and model parameters
Doing analysis at TEMP = 27.000000 and TNOM = 27.000000

Using KLU as Direct Linear Solver
Operating point simulation skipped by 'uic',
  now using transient initial conditions.
 Reference value :  1.00000e-12
 Reference value :  1.08153e-12
 Reference value :  2.17815e-12
 Reference value :  1.35587e-11
 Reference value :  5.93672e-11
 Reference value :  1.15706e-10
 Reference value :  2.62293e-10
 Reference value :  6.77128e-10
 Reference value :  1.35307e-09
 Reference value :  3.19844e-09
 Reference value :  5.12192e-09
 Reference value :  6.83024e-09
 Reference value :  9.08319e-09
 Reference value :  1.07717e-08
 Reference value :  1.30359e-08
 Reference value :  2.34512e-08
 Reference value :  4.50706e-08
 Reference value :  1.70800e-07
 Reference value :  2.50170e-07
 Reference value :  2.50254e-07
 Reference value :  2.50680e-07
 Reference value :  2.51695e-07
 Reference value :  2.53257e-07
 Reference value :  2.54791e-07
 Reference value :  2.57474e-07
 Reference value :  2.80544e-07
 Reference value :  5.00000e-07
 Reference value :  5.00100e-07
 Reference value :  5.00338e-07
 Reference value :  5.01187e-07
 Reference value :  5.02414e-07
 Reference value :  5.03446e-07
 Reference value :  5.05563e-07
 Reference value :  5.07839e-07
 Reference value :  5.10138e-07
 Reference value :  5.11637e-07
 Reference value :  5.14501e-07
 Reference value :  5.22852e-07
 Reference value :  5.83993e-07
 Reference value :  7.50110e-07
 Reference value :  7.50200e-07
 Reference value :  7.50320e-07
 Reference value :  7.50986e-07
 Reference value :  7.51862e-07
 Reference value :  7.52994e-07
 Reference value :  7.53450e-07
 Reference value :  7.54490e-07
 Reference value :  7.55778e-07
 Reference value :  7.63369e-07
 Reference value :  8.53122e-07
 Reference value :  1.00003e-06
 Reference value :  1.00012e-06
 Reference value :  1.00052e-06
 Reference value :  1.00158e-06
 Reference value :  1.00289e-06
 Reference value :  1.00450e-06
 Reference value :  1.00554e-06
 Reference value :  1.00845e-06
 Reference value :  1.01119e-06
 Reference value :  1.01324e-06
 Reference value :  1.01525e-06
 Reference value :  1.01916e-06
 Reference value :  1.03638e-06
 Reference value :  1.12240e-06
 Reference value :  1.25011e-06
 Reference value :  1.25020e-06
 Reference value :  1.25032e-06
 Reference value :  1.25098e-06
 Reference value :  1.25186e-06
 Reference value :  1.25300e-06
 Reference value :  1.25399e-06
 Reference value :  1.25609e-06
 Reference value :  1.27384e-06
 Reference value :  1.37510e-06
 Reference value :  1.49124e-06
 Reference value :  1.50003e-06
 Reference value :  1.50011e-06
 Reference value :  1.50022e-06
 Reference value :  1.50083e-06
 Reference value :  1.50201e-06
 Reference value :  1.50289e-06
 Reference value :  1.50474e-06
 Reference value :  1.50616e-06
 Reference value :  1.50771e-06
 Reference value :  1.51086e-06
 Reference value :  1.54790e-06
 Reference value :  1.75013e-06
 Reference value :  1.75022e-06
 Reference value :  1.75069e-06
 Reference value :  1.75140e-06
 Reference value :  1.75299e-06
 Reference value :  1.75397e-06
 Reference value :  1.75580e-06
 Reference value :  1.76367e-06
 Reference value :  1.96047e-06
 Reference value :  2.00007e-06
 Reference value :  2.00016e-06
 Reference value :  2.00083e-06
 Reference value :  2.00158e-06
 Reference value :  2.00289e-06
 Reference value :  2.00396e-06
 Reference value :  2.00500e-06
 Reference value :  2.00631e-06
 Reference value :  2.00846e-06
 Reference value :  2.01120e-06
 Reference value :  2.01323e-06
 Reference value :  2.01525e-06
 Reference value :  2.01914e-06
 Reference value :  2.02615e-06
 Reference value :  2.03173e-06
 Reference value :  2.03769e-06
 Reference value :  2.05376e-06
 Reference value :  2.07372e-06
 Reference value :  2.15231e-06
 Reference value :  2.25013e-06
 Reference value :  2.25021e-06
 Reference value :  2.25045e-06
 Reference value :  2.25140e-06
 Reference value :  2.25299e-06
 Reference value :  2.25395e-06
 Reference value :  2.25527e-06
 Reference value :  2.25731e-06
 Reference value :  2.27188e-06
 Reference value :  2.48009e-06
 Reference value :  2.50007e-06
 Reference value :  2.50016e-06
 Reference value :  2.50052e-06
 Reference value :  2.50119e-06
 Reference value :  2.50195e-06
 Reference value :  2.50282e-06
 Reference value :  2.50388e-06
 Reference value :  2.50536e-06
 Reference value :  2.50598e-06
 Reference value :  2.50749e-06
 Reference value :  2.50924e-06
 Reference value :  2.51146e-06
 Reference value :  2.52245e-06
 Reference value :  2.54874e-06
 Reference value :  2.75010e-06
 Reference value :  2.75017e-06
 Reference value :  2.75022e-06
 Reference value :  2.75045e-06
 Reference value :  2.75098e-06
 Reference value :  2.75140e-06
 Reference value :  2.75229e-06
 Reference value :  2.75344e-06
 Reference value :  2.75448e-06
 Reference value :  2.75580e-06
 Reference value :  2.75752e-06
 Reference value :  2.75965e-06
 Reference value :  2.76746e-06
 Reference value :  2.82043e-06
 Reference value :  3.00001e-06
 Reference value :  3.00010e-06
 Reference value :  3.00016e-06
 Reference value :  3.00034e-06
 Reference value :  3.00083e-06
 Reference value :  3.00158e-06
 Reference value :  3.00242e-06
 Reference value :  3.00342e-06
 Reference value :  3.00440e-06
 Reference value :  3.00534e-06
 Reference value :  3.00664e-06
 Reference value :  3.00758e-06
 Reference value :  3.00841e-06
 Reference value :  3.01016e-06
 Reference value :  3.01112e-06
 Reference value :  3.01192e-06
 Reference value :  3.01358e-06
 Reference value :  3.01536e-06
 Reference value :  3.01637e-06
 Reference value :  3.01916e-06
 Reference value :  3.02443e-06
 Reference value :  3.06078e-06
 Reference value :  3.11536e-06
 Reference value :  3.21374e-06
 Reference value :  3.25013e-06
 Reference value :  3.25021e-06
 Reference value :  3.25032e-06
 Reference value :  3.25069e-06
 Reference value :  3.25140e-06
 Reference value :  3.25229e-06
 Reference value :  3.25345e-06
 Reference value :  3.25527e-06
 Reference value :  3.25897e-06
 Reference value :  3.27279e-06
 Reference value :  3.49343e-06
 Reference value :  3.50003e-06
 Reference value :  3.50011e-06
 Reference value :  3.50022e-06
 Reference value :  3.50052e-06
 Reference value :  3.50119e-06
 Reference value :  3.50195e-06
 Reference value :  3.50282e-06
 Reference value :  3.50389e-06
 Reference value :  3.50536e-06
 Reference value :  3.50598e-06
 Reference value :  3.50749e-06
 Reference value :  3.50924e-06
 Reference value :  3.51029e-06
 Reference value :  3.51676e-06
 Reference value :  3.54823e-06
 Reference value :  3.75010e-06
 Reference value :  3.75017e-06
 Reference value :  3.75022e-06
 Reference value :  3.75045e-06
 Reference value :  3.75098e-06
 Reference value :  3.75186e-06
 Reference value :  3.75299e-06
 Reference value :  3.75344e-06
 Reference value :  3.75502e-06
 Reference value :  3.75660e-06
 Reference value :  3.75835e-06
 Reference value :  3.76364e-06
 Reference value :  3.81950e-06
 Reference value :  4.00001e-06
 Reference value :  4.00007e-06
 Reference value :  4.00012e-06
 Reference value :  4.00034e-06
 Reference value :  4.00119e-06
 Reference value :  4.00201e-06
 Reference value :  4.00290e-06
 Reference value :  4.00390e-06
 Reference value :  4.00484e-06
 Reference value :  4.00593e-06
 Reference value :  4.00758e-06
 Reference value :  4.00841e-06
 Reference value :  4.01016e-06
 Reference value :  4.01191e-06
 Reference value :  4.01356e-06
 Reference value :  4.01534e-06
 Reference value :  4.01736e-06
 Reference value :  4.02424e-06
 Reference value :  4.05137e-06
 Reference value :  4.06154e-06
 Reference value :  4.07144e-06
 Reference value :  4.07806e-06
 Reference value :  4.09047e-06
 Reference value :  4.11326e-06
 Reference value :  4.13557e-06
 Reference value :  4.15495e-06
 Reference value :  4.17094e-06
 Reference value :  4.19303e-06
 Reference value :  4.23665e-06
 Reference value :  4.25013e-06
 Reference value :  4.25021e-06
 Reference value :  4.25032e-06
 Reference value :  4.25069e-06
 Reference value :  4.25140e-06
 Reference value :  4.25229e-06
 Reference value :  4.25344e-06
 Reference value :  4.25527e-06
 Reference value :  4.25882e-06
 Reference value :  4.27209e-06
 Reference value :  4.48319e-06
 Reference value :  4.50007e-06
 Reference value :  4.50012e-06
 Reference value :  4.50034e-06
 Reference value :  4.50083e-06
 Reference value :  4.50154e-06
 Reference value :  4.50282e-06
 Reference value :  4.50464e-06
 Reference value :  4.50598e-06
 Reference value :  4.50749e-06
 Reference value :  4.51028e-06
 Reference value :  4.51673e-06
 Reference value :  4.58017e-06
 Reference value :  4.75017e-06
 Reference value :  4.75026e-06
 Reference value :  4.75069e-06
 Reference value :  4.75140e-06
 Reference value :  4.75299e-06
 Reference value :  4.75397e-06
 Reference value :  4.75502e-06
 Reference value :  4.75660e-06
 Reference value :  4.75835e-06
 Reference value :  4.76103e-06
 Reference value :  4.77474e-06
 Reference value :  4.87849e-06
 Reference value :  5.00001e-06
 Reference value :  5.00010e-06
 Reference value :  5.00016e-06
 Reference value :  5.00052e-06
 Reference value :  5.00119e-06
 Reference value :  5.00201e-06
 Reference value :  5.00290e-06
 Reference value :  5.00390e-06
 Reference value :  5.00484e-06
 Reference value :  5.00758e-06
 Reference value :  5.00928e-06
 Reference value :  5.01015e-06
 Reference value :  5.01190e-06
 Reference value :  5.01354e-06
 Reference value :  5.01630e-06
 Reference value :  5.02406e-06
 Reference value :  5.03209e-06
 Reference value :  5.03925e-06
 Reference value :  5.04413e-06
 Reference value :  5.06398e-06
 Reference value :  5.11550e-06
 Reference value :  5.25010e-06
 Reference value :  5.25017e-06
 Reference value :  5.25026e-06
 Reference value :  5.25069e-06
 Reference value :  5.25140e-06
 Reference value :  5.25299e-06
 Reference value :  5.25395e-06
 Reference value :  5.25597e-06
 Reference value :  5.26507e-06
 Reference value :  5.31442e-06
 Reference value :  5.36333e-06
 Reference value :  5.50000e-06
 Reference value :  5.50010e-06
 Reference value :  5.50016e-06
 Reference value :  5.50052e-06
 Reference value :  5.50119e-06
 Reference value :  5.50195e-06
 Reference value :  5.50282e-06
 Reference value :  5.50389e-06
 Reference value :  5.50536e-06
 Reference value :  5.50598e-06
 Reference value :  5.50749e-06
 Reference value :  5.51028e-06
 Reference value :  5.52220e-06
 Reference value :  5.64341e-06
 Reference value :  5.75013e-06
 Reference value :  5.75021e-06
 Reference value :  5.75032e-06
 Reference value :  5.75098e-06
 Reference value :  5.75186e-06
 Reference value :  5.75299e-06
 Reference value :  5.75344e-06
 Reference value :  5.75448e-06
 Reference value :  5.75579e-06
 Reference value :  5.75834e-06
 Reference value :  5.76362e-06
 Reference value :  5.81897e-06
 Reference value :  6.00001e-06
 Reference value :  6.00010e-06
 Reference value :  6.00016e-06
 Reference value :  6.00034e-06
 Reference value :  6.00083e-06
 Reference value :  6.00158e-06
 Reference value :  6.00242e-06
 Reference value :  6.00290e-06
 Reference value :  6.00390e-06
 Reference value :  6.00484e-06
 Reference value :  6.00664e-06
 Reference value :  6.00841e-06
 Reference value :  6.01015e-06
 Reference value :  6.01189e-06
 Reference value :  6.01353e-06
 Reference value :  6.01628e-06
 Reference value :  6.02056e-06
 Reference value :  6.02501e-06
 Reference value :  6.02873e-06
 Reference value :  6.03916e-06
 Reference value :  6.07514e-06
 Reference value :  6.18672e-06
 Reference value :  6.25013e-06
 Reference value :  6.25020e-06
 Reference value :  6.25026e-06
 Reference value :  6.25069e-06
 Reference value :  6.25140e-06
 Reference value :  6.25229e-06
 Reference value :  6.25345e-06
 Reference value :  6.25460e-06
 Reference value :  6.25740e-06
 Reference value :  6.27232e-06
 Reference value :  6.37229e-06
 Reference value :  6.50001e-06
 Reference value :  6.50010e-06
 Reference value :  6.50016e-06
 Reference value :  6.50034e-06
 Reference value :  6.50083e-06
 Reference value :  6.50158e-06
 Reference value :  6.50242e-06
 Reference value :  6.50290e-06
 Reference value :  6.50342e-06
 Reference value :  6.50474e-06
 Reference value :  6.50616e-06
 Reference value :  6.50771e-06
 Reference value :  6.50956e-06
 Reference value :  6.51550e-06
 Reference value :  6.58242e-06
 Reference value :  6.75011e-06
 Reference value :  6.75017e-06
 Reference value :  6.75022e-06
 Reference value :  6.75045e-06
 Reference value :  6.75098e-06
 Reference value :  6.75139e-06
 Reference value :  6.75229e-06
 Reference value :  6.75344e-06
 Reference value :  6.75448e-06
 Reference value :  6.75579e-06
 Reference value :  6.76358e-06
 Reference value :  6.80710e-06
 Reference value :  7.00001e-06
 Reference value :  7.00007e-06
 Reference value :  7.00012e-06
 Reference value :  7.00022e-06
 Reference value :  7.00052e-06
 Reference value :  7.00119e-06
 Reference value :  7.00158e-06
 Reference value :  7.00242e-06
 Reference value :  7.00289e-06
 Reference value :  7.00396e-06
 Reference value :  7.00500e-06
 Reference value :  7.00709e-06
 Reference value :  7.01120e-06
 Reference value :  7.01322e-06
 Reference value :  7.01524e-06
 Reference value :  7.01910e-06
 Reference value :  7.03211e-06
 Reference value :  7.06910e-06
 Reference value :  7.11311e-06
 Reference value :  7.14907e-06
 Reference value :  7.24810e-06
 Reference value :  7.25017e-06
 Reference value :  7.25032e-06
 Reference value :  7.25098e-06
 Reference value :  7.25186e-06
 Reference value :  7.25299e-06
 Reference value :  7.25398e-06
 Reference value :  7.25523e-06
 Reference value :  7.25888e-06
 Reference value :  7.28665e-06
 Reference value :  7.47361e-06
 Reference value :  7.50003e-06
 Reference value :  7.50011e-06
 Reference value :  7.50022e-06
 Reference value :  7.50083e-06
 Reference value :  7.50158e-06
 Reference value :  7.50242e-06
 Reference value :  7.50290e-06
 Reference value :  7.50399e-06
 Reference value :  7.50553e-06
 Reference value :  7.50616e-06
 Reference value :  7.50771e-06
 Reference value :  7.51087e-06
 Reference value :  7.52946e-06
 Reference value :  7.75010e-06
 Reference value :  7.75017e-06
 Reference value :  7.75022e-06
 Reference value :  7.75045e-06
 Reference value :  7.75139e-06
 Reference value :  7.75299e-06
 Reference value :  7.75397e-06
 Reference value :  7.75502e-06
 Reference value :  7.75579e-06
 Reference value :  7.75823e-06
 Reference value :  7.76984e-06
 Reference value :  7.80732e-06
 Reference value :  7.95724e-06
 Reference value :  8.00001e-06
 Reference value :  8.00007e-06
 Reference value :  8.00011e-06
 Reference value :  8.00022e-06
 Reference value :  8.00052e-06
 Reference value :  8.00083e-06
 Reference value :  8.00158e-06
 Reference value :  8.00289e-06
 Reference value :  8.00452e-06
 Reference value :  8.00558e-06
 Reference value :  8.00717e-06
 Reference value :  8.00885e-06
 Reference value :  8.02264e-06
 Reference value :  8.23261e-06
 Reference value :  8.25017e-06
 Reference value :  8.25026e-06
 Reference value :  8.25070e-06
 Reference value :  8.25139e-06
 Reference value :  8.25228e-06
 Reference value :  8.25364e-06
 Reference value :  8.25535e-06
 Reference value :  8.25767e-06
 Reference value :  8.26625e-06
 Reference value :  8.29144e-06
 Reference value :  8.50000e-06
 Reference value :  8.50000e-06
 Reference value :  8.50000e-06
 Reference value :  8.50001e-06
 Reference value :  8.50010e-06
 Reference value :  8.50014e-06
 Reference value :  8.50027e-06
 Reference value :  8.50068e-06
 Reference value :  8.50158e-06
 Reference value :  8.50197e-06
 Reference value :  8.50292e-06
 Reference value :  8.50348e-06
 Reference value :  8.50446e-06
 Reference value :  8.50554e-06
 Reference value :  8.50901e-06
 Reference value :  8.51731e-06
 Reference value :  8.51802e-06
 Reference value :  8.52178e-06
 Reference value :  8.52379e-06
 Reference value :  8.52762e-06
 Reference value :  8.52919e-06
 Reference value :  8.53229e-06
 Reference value :  8.53680e-06
 Reference value :  8.54147e-06
 Reference value :  8.56170e-06
 Reference value :  8.69647e-06
 Reference value :  8.75017e-06
 Reference value :  8.75022e-06
 Reference value :  8.75069e-06
 Reference value :  8.75185e-06
 Reference value :  8.75297e-06
 Reference value :  8.75394e-06
 Reference value :  8.75517e-06
 Reference value :  8.76146e-06
 Reference value :  8.86543e-06
 Reference value :  9.00003e-06
 Reference value :  9.00012e-06
 Reference value :  9.00052e-06
 Reference value :  9.00157e-06
 Reference value :  9.00288e-06
 Reference value :  9.00548e-06
 Reference value :  9.00779e-06
 Reference value :  9.01136e-06
 Reference value :  9.01385e-06
 Reference value :  9.02068e-06
 Reference value :  9.07924e-06
 Reference value :  9.25013e-06
 Reference value :  9.25021e-06
 Reference value :  9.25045e-06
 Reference value :  9.25139e-06
 Reference value :  9.25298e-06
 Reference value :  9.25396e-06
 Reference value :  9.25501e-06
 Reference value :  9.25821e-06
 Reference value :  9.28221e-06
 Reference value :  9.50000e-06
 Reference value :  9.50007e-06
 Reference value :  9.50012e-06
 Reference value :  9.50034e-06
 Reference value :  9.50083e-06
 Reference value :  9.50158e-06
 Reference value :  9.50242e-06
 Reference value :  9.50341e-06
 Reference value :  9.50449e-06
 Reference value :  9.50499e-06
 Reference value :  9.50629e-06
 Reference value :  9.50841e-06
 Reference value :  9.51117e-06
 Reference value :  9.51221e-06
 Reference value :  9.51429e-06
 Reference value :  9.51627e-06
 Reference value :  9.52077e-06
 Reference value :  9.53616e-06
 Reference value :  9.61857e-06
 Reference value :  9.75010e-06
 Reference value :  9.75017e-06
 Reference value :  9.75022e-06
 Reference value :  9.75045e-06
 Reference value :  9.75140e-06
 Reference value :  9.75229e-06
 Reference value :  9.75344e-06
 Reference value :  9.75464e-06
 Reference value :  9.75604e-06
 Reference value :  9.75902e-06
 Reference value :  9.77312e-06
 Reference value :  9.87857e-06
 Reference value :  1.00000e-05
 Reference value :  1.00001e-05
 Reference value :  1.00001e-05
 Reference value :  1.00002e-05
 Reference value :  1.00005e-05
 Reference value :  1.00012e-05
 Reference value :  1.00016e-05
 Reference value :  1.00024e-05
 Reference value :  1.00029e-05
 Reference value :  1.00040e-05
 Reference value :  1.00055e-05
 Reference value :  1.00061e-05
 Reference value :  1.00077e-05
 Reference value :  1.00095e-05
 Reference value :  1.00153e-05
 Reference value :  1.00426e-05
 Reference value :  1.02491e-05
 Reference value :  1.02501e-05
 Reference value :  1.02502e-05
 Reference value :  1.02503e-05
 Reference value :  1.02504e-05
 Reference value :  1.02510e-05
 Reference value :  1.02514e-05
 Reference value :  1.02530e-05
 Reference value :  1.02534e-05
 Reference value :  1.02545e-05
 Reference value :  1.02558e-05
 Reference value :  1.02582e-05
 Reference value :  1.02698e-05
 Reference value :  1.03572e-05
 Reference value :  1.05000e-05
 Reference value :  1.05001e-05
 Reference value :  1.05001e-05
 Reference value :  1.05002e-05
 Reference value :  1.05008e-05
 Reference value :  1.05016e-05
 Reference value :  1.05024e-05
 Reference value :  1.05029e-05
 Reference value :  1.05040e-05
 Reference value :  1.05050e-05
 Reference value :  1.05071e-05
 Reference value :  1.05100e-05
 Reference value :  1.05112e-05
 Reference value :  1.05122e-05
 Reference value :  1.05143e-05
 Reference value :  1.05153e-05
 Reference value :  1.05192e-05
 Reference value :  1.05263e-05
 Reference value :  1.05320e-05
 Reference value :  1.05379e-05
 Reference value :  1.05438e-05
 Reference value :  1.05596e-05
 Reference value :  1.05805e-05
 Reference value :  1.06496e-05
 Reference value :  1.07501e-05
 Reference value :  1.07502e-05
 Reference value :  1.07504e-05
 Reference value :  1.07514e-05
 Reference value :  1.07530e-05
 Reference value :  1.07539e-05
 Reference value :  1.07559e-05
 Reference value :  1.07648e-05
 Reference value :  1.08667e-05
 Reference value :  1.10000e-05
 Reference value :  1.10001e-05
 Reference value :  1.10003e-05
 Reference value :  1.10012e-05
 Reference value :  1.10019e-05
 Reference value :  1.10028e-05
 Reference value :  1.10039e-05
 Reference value :  1.10054e-05
 Reference value :  1.10066e-05
 Reference value :  1.10084e-05
 Reference value :  1.10114e-05
 Reference value :  1.10480e-05
 Reference value :  1.12501e-05
 Reference value :  1.12502e-05
 Reference value :  1.12504e-05
 Reference value :  1.12514e-05
 Reference value :  1.12523e-05
 Reference value :  1.12534e-05
 Reference value :  1.12545e-05
 Reference value :  1.12558e-05
 Reference value :  1.12584e-05
 Reference value :  1.12636e-05
 Reference value :  1.13196e-05
 Reference value :  1.15000e-05
 Reference value :  1.15001e-05
 Reference value :  1.15002e-05
 Reference value :  1.15005e-05
 Reference value :  1.15012e-05
 Reference value :  1.15016e-05
 Reference value :  1.15024e-05
 Reference value :  1.15029e-05
 Reference value :  1.15039e-05
 Reference value :  1.15048e-05
 Reference value :  1.15059e-05
 Reference value :  1.15076e-05
 Reference value :  1.15093e-05
 Reference value :  1.15102e-05
 Reference value :  1.15119e-05
 Reference value :  1.15136e-05
 Reference value :  1.15164e-05
 Reference value :  1.15211e-05
 Reference value :  1.15650e-05
 Reference value :  1.16205e-05
 Reference value :  1.17190e-05
 Reference value :  1.17502e-05
 Reference value :  1.17503e-05
 Reference value :  1.17507e-05
 Reference value :  1.17514e-05
 Reference value :  1.17530e-05
 Reference value :  1.17540e-05
 Reference value :  1.17560e-05
 Reference value :  1.17654e-05
 Reference value :  1.18757e-05
 Reference value :  1.20000e-05
 Reference value :  1.20001e-05
 Reference value :  1.20002e-05
 Reference value :  1.20008e-05
 Reference value :  1.20015e-05
 Reference value :  1.20023e-05
 Reference value :  1.20028e-05
 Reference value :  1.20039e-05
 Reference value :  1.20054e-05
 Reference value :  1.20060e-05
 Reference value :  1.20075e-05
 Reference value :  1.20103e-05
 Reference value :  1.20221e-05
 Reference value :  1.22501e-05
 Reference value :  1.22502e-05
 Reference value :  1.22503e-05
 Reference value :  1.22510e-05
 Reference value :  1.22519e-05
 Reference value :  1.22530e-05
 Reference value :  1.22540e-05
 Reference value :  1.22550e-05
 Reference value :  1.22566e-05
 Reference value :  1.22583e-05
 Reference value :  1.22596e-05
 Reference value :  1.22896e-05
 Reference value :  1.25000e-05
 Reference value :  1.25001e-05
 Reference value :  1.25005e-05
 Reference value :  1.25016e-05
 Reference value :  1.25029e-05
 Reference value :  1.25039e-05
 Reference value :  1.25053e-05
 Reference value :  1.25076e-05
 Reference value :  1.25093e-05
 Reference value :  1.25102e-05
 Reference value :  1.25119e-05
 Reference value :  1.25136e-05
 Reference value :  1.25154e-05
 Reference value :  1.25192e-05
 Reference value :  1.25500e-05
 Reference value :  1.25597e-05
 Reference value :  1.25689e-05
 Reference value :  1.25807e-05
 Reference value :  1.25995e-05
 Reference value :  1.26293e-05
 Reference value :  1.26368e-05
 Reference value :  1.26534e-05
 Reference value :  1.26769e-05
 Reference value :  1.27109e-05
 Reference value :  1.27501e-05
 Reference value :  1.27502e-05
 Reference value :  1.27503e-05
 Reference value :  1.27507e-05
 Reference value :  1.27514e-05
 Reference value :  1.27523e-05
 Reference value :  1.27534e-05
 Reference value :  1.27553e-05
 Reference value :  1.27588e-05
 Reference value :  1.27861e-05
 Reference value :  1.30000e-05
 Reference value :  1.30001e-05
 Reference value :  1.30003e-05
 Reference value :  1.30015e-05
 Reference value :  1.30028e-05
 Reference value :  1.30046e-05
 Reference value :  1.30060e-05
 Reference value :  1.30084e-05
 Reference value :  1.30136e-05
 Reference value :  1.30474e-05
 Reference value :  1.32501e-05
 Reference value :  1.32502e-05
 Reference value :  1.32503e-05
 Reference value :  1.32514e-05
 Reference value :  1.32530e-05
 Reference value :  1.32540e-05
 Reference value :  1.32558e-05
 Reference value :  1.32583e-05
 Reference value :  1.32636e-05
 Reference value :  1.33191e-05
 Reference value :  1.35000e-05
 Reference value :  1.35001e-05
 Reference value :  1.35002e-05
 Reference value :  1.35008e-05
 Reference value :  1.35016e-05
 Reference value :  1.35024e-05
 Reference value :  1.35034e-05
 Reference value :  1.35044e-05
 Reference value :  1.35048e-05
 Reference value :  1.35066e-05
 Reference value :  1.35084e-05
 Reference value :  1.35102e-05
 Reference value :  1.35119e-05
 Reference value :  1.35136e-05
 Reference value :  1.35163e-05
 Reference value :  1.35208e-05
 Reference value :  1.35321e-05
 Reference value :  1.35364e-05
 Reference value :  1.35421e-05
 Reference value :  1.35529e-05
 Reference value :  1.35964e-05
 Reference value :  1.37501e-05
 Reference value :  1.37502e-05
 Reference value :  1.37503e-05
 Reference value :  1.37510e-05
 Reference value :  1.37523e-05
 Reference value :  1.37534e-05
 Reference value :  1.37553e-05
 Reference value :  1.37591e-05
 Reference value :  1.37891e-05
 Reference value :  1.38038e-05
 Reference value :  1.38257e-05
 Reference value :  1.38811e-05
 Reference value :  1.39889e-05
 Reference value :  1.40001e-05
 Reference value :  1.40002e-05
 Reference value :  1.40005e-05
 Reference value :  1.40015e-05
 Reference value :  1.40028e-05
 Reference value :  1.40046e-05
 Reference value :  1.40060e-05
 Reference value :  1.40075e-05
 Reference value :  1.40103e-05
 Reference value :  1.40320e-05
 Reference value :  1.42501e-05
 Reference value :  1.42502e-05
 Reference value :  1.42502e-05
 Reference value :  1.42504e-05
 Reference value :  1.42514e-05
 Reference value :  1.42530e-05
 Reference value :  1.42534e-05
 Reference value :  1.42545e-05
 Reference value :  1.42558e-05
 Reference value :  1.42575e-05
 Reference value :  1.42596e-05
 Reference value :  1.42673e-05
 Reference value :  1.42895e-05
 Reference value :  1.44963e-05
 Reference value :  1.45000e-05
 Reference value :  1.45001e-05
 Reference value :  1.45001e-05
 Reference value :  1.45002e-05
 Reference value :  1.45005e-05
 Reference value :  1.45012e-05
 Reference value :  1.45016e-05
 Reference value :  1.45024e-05
 Reference value :  1.45029e-05
 Reference value :  1.45039e-05
 Reference value :  1.45048e-05
 Reference value :  1.45059e-05
 Reference value :  1.45075e-05
 Reference value :  1.45093e-05
 Reference value :  1.45102e-05
 Reference value :  1.45119e-05
 Reference value :  1.45136e-05
 Reference value :  1.45154e-05
 Reference value :  1.45175e-05
 Reference value :  1.45189e-05
 Reference value :  1.45219e-05
 Reference value :  1.45248e-05
 Reference value :  1.45332e-05
 Reference value :  1.45624e-05
 Reference value :  1.46530e-05
 Reference value :  1.47501e-05
 Reference value :  1.47502e-05
 Reference value :  1.47502e-05
 Reference value :  1.47504e-05
 Reference value :  1.47510e-05
 Reference value :  1.47514e-05
 Reference value :  1.47523e-05
 Reference value :  1.47534e-05
 Reference value :  1.47546e-05
 Reference value :  1.47560e-05
 Reference value :  1.47616e-05
 Reference value :  1.47723e-05
 Reference value :  1.48723e-05
 Reference value :  1.50000e-05
 Reference value :  1.50001e-05
 Reference value :  1.50002e-05
 Reference value :  1.50005e-05
 Reference value :  1.50012e-05
 Reference value :  1.50024e-05
 Reference value :  1.50034e-05
 Reference value :  1.50055e-05
 Reference value :  1.50069e-05
 Reference value :  1.50087e-05
 Reference value :  1.50125e-05
 Reference value :  1.50472e-05
 Reference value :  1.52501e-05
 Reference value :  1.52502e-05
 Reference value :  1.52507e-05
 Reference value :  1.52514e-05
 Reference value :  1.52530e-05
 Reference value :  1.52540e-05
 Reference value :  1.52550e-05
 Reference value :  1.52582e-05
 Reference value :  1.52698e-05
 Reference value :  1.54564e-05
 Reference value :  1.55007e-05
 Reference value :  1.55022e-05
 Reference value :  1.55030e-05
 Reference value :  1.55044e-05
 Reference value :  1.55056e-05
 Reference value :  1.55081e-05
 Reference value :  1.55109e-05
 Reference value :  1.55131e-05
 Reference value :  1.55158e-05
 Reference value :  1.55199e-05
 Reference value :  1.55343e-05
 Reference value :  1.55983e-05
 Reference value :  1.56800e-05
 Reference value :  1.57501e-05
 Reference value :  1.57502e-05
 Reference value :  1.57502e-05
 Reference value :  1.57504e-05
 Reference value :  1.57510e-05
 Reference value :  1.57519e-05
 Reference value :  1.57529e-05
 Reference value :  1.57539e-05
 Reference value :  1.57551e-05
 Reference value :  1.57586e-05
 Reference value :  1.58092e-05
 Reference value :  1.60000e-05
 Reference value :  1.60001e-05
 Reference value :  1.60002e-05
 Reference value :  1.60008e-05
 Reference value :  1.60016e-05
 Reference value :  1.60029e-05
 Reference value :  1.60047e-05
 Reference value :  1.60062e-05
 Reference value :  1.60077e-05
 Reference value :  1.60109e-05
 Reference value :  1.60204e-05
 Reference value :  1.62501e-05
 Reference value :  1.62502e-05
 Reference value :  1.62503e-05
 Reference value :  1.62507e-05
 Reference value :  1.62514e-05
 Reference value :  1.62530e-05
 Reference value :  1.62540e-05
 Reference value :  1.62558e-05
 Reference value :  1.62602e-05
 Reference value :  1.62820e-05
 Reference value :  1.65000e-05
 Reference value :  1.65001e-05
 Reference value :  1.65001e-05
 Reference value :  1.65002e-05
 Reference value :  1.65005e-05
 Reference value :  1.65016e-05
 Reference value :  1.65024e-05
 Reference value :  1.65029e-05
 Reference value :  1.65040e-05
 Reference value :  1.65050e-05
 Reference value :  1.65072e-05
 Reference value :  1.65088e-05
 Reference value :  1.65226e-05
 Reference value :  1.67327e-05
 Reference value :  1.67501e-05
 Reference value :  1.67502e-05
 Reference value :  1.67502e-05
 Reference value :  1.67503e-05
 Reference value :  1.67507e-05
 Reference value :  1.67514e-05
 Reference value :  1.67523e-05
 Reference value :  1.67536e-05
 Reference value :  1.67553e-05
 Reference value :  1.67577e-05
 Reference value :  1.67662e-05
 Reference value :  1.68821e-05
 Reference value :  1.70000e-05
 Reference value :  1.70000e-05
 Reference value :  1.70000e-05
 Reference value :  1.70001e-05
 Reference value :  1.70001e-05
 Reference value :  1.70004e-05
 Reference value :  1.70016e-05
 Reference value :  1.70024e-05
 Reference value :  1.70035e-05
 Reference value :  1.70045e-05
 Reference value :  1.70062e-05
 Reference value :  1.70173e-05
 Reference value :  1.70179e-05
 Reference value :  1.70215e-05
 Reference value :  1.70258e-05
 Reference value :  1.70276e-05
 Reference value :  1.70310e-05
 Reference value :  1.70340e-05
 Reference value :  1.70395e-05
 Reference value :  1.70487e-05
 Reference value :  1.71032e-05
 Reference value :  1.72501e-05
 Reference value :  1.72502e-05
 Reference value :  1.72503e-05
 Reference value :  1.72510e-05
 Reference value :  1.72519e-05
 Reference value :  1.72530e-05
 Reference value :  1.72534e-05
 Reference value :  1.72545e-05
 Reference value :  1.72573e-05
 Reference value :  1.72714e-05
 Reference value :  1.73644e-05
 Reference value :  1.75000e-05
 Reference value :  1.75001e-05
 Reference value :  1.75002e-05
 Reference value :  1.75005e-05
 Reference value :  1.75012e-05
 Reference value :  1.75020e-05
 Reference value :  1.75029e-05
 Reference value :  1.75047e-05
 Reference value :  1.75065e-05
 Reference value :  1.75101e-05
 Reference value :  1.75128e-05
 Reference value :  1.75182e-05
 Reference value :  1.75367e-05
 Reference value :  1.77495e-05
 Reference value :  1.77502e-05
 Reference value :  1.77503e-05
 Reference value :  1.77507e-05
 Reference value :  1.77519e-05
 Reference value :  1.77534e-05
 Reference value :  1.77545e-05
 Reference value :  1.77566e-05
 Reference value :  1.77697e-05
 Reference value :  1.80000e-05
 Reference value :  1.80007e-05
 Reference value :  1.80030e-05
 Reference value :  1.80044e-05
 Reference value :  1.80056e-05
 Reference value :  1.80080e-05
 Reference value :  1.80107e-05
 Reference value :  1.80139e-05
 Reference value :  1.80170e-05
 Reference value :  1.80443e-05
 Reference value :  1.82501e-05
 Reference value :  1.82502e-05
 Reference value :  1.82510e-05
 Reference value :  1.82523e-05
 Reference value :  1.82534e-05
 Reference value :  1.82551e-05
 Reference value :  1.82644e-05
 Reference value :  1.84312e-05
 Reference value :  1.85000e-05
 Reference value :  1.85001e-05
 Reference value :  1.85002e-05
 Reference value :  1.85003e-05
 Reference value :  1.85008e-05
 Reference value :  1.85016e-05
 Reference value :  1.85024e-05
 Reference value :  1.85029e-05
 Reference value :  1.85040e-05
 Reference value :  1.85055e-05
 Reference value :  1.85062e-05
 Reference value :  1.85077e-05
 Reference value :  1.85109e-05
 Reference value :  1.85293e-05
 Reference value :  1.86495e-05
 Reference value :  1.87502e-05
 Reference value :  1.87503e-05
 Reference value :  1.87507e-05
 Reference value :  1.87514e-05
 Reference value :  1.87530e-05
 Reference value :  1.87540e-05
 Reference value :  1.87550e-05
 Reference value :  1.87582e-05
 Reference value :  1.87826e-05
 Reference value :  1.90000e-05
 Reference value :  1.90001e-05
 Reference value :  1.90003e-05
 Reference value :  1.90012e-05
 Reference value :  1.90020e-05
 Reference value :  1.90029e-05
 Reference value :  1.90045e-05
 Reference value :  1.90055e-05
 Reference value :  1.90085e-05
 Reference value :  1.90112e-05
 Reference value :  1.90132e-05
 Reference value :  1.90153e-05
 Reference value :  1.90192e-05
 Reference value :  1.90266e-05
 Reference value :  1.90323e-05
 Reference value :  1.90382e-05
 Reference value :  1.90438e-05
 Reference value :  1.90534e-05
 Reference value :  1.90742e-05
 Reference value :  1.91114e-05
 Reference value :  1.92501e-05
 Reference value :  1.92502e-05
 Reference value :  1.92502e-05
 Reference value :  1.92503e-05
 Reference value :  1.92507e-05
 Reference value :  1.92514e-05
 Reference value :  1.92530e-05
 Reference value :  1.92539e-05
 Reference value :  1.92553e-05
 Reference value :  1.92588e-05
 Reference value :  1.92856e-05
 Reference value :  1.94790e-05
 Reference value :  1.95004e-05
 Reference value :  1.95015e-05
 Reference value :  1.95028e-05
 Reference value :  1.95040e-05
 Reference value :  1.95056e-05
 Reference value :  1.95063e-05
 Reference value :  1.95078e-05
 Reference value :  1.95096e-05
 Reference value :  1.95220e-05
 Reference value :  1.95910e-05
 Reference value :  1.97501e-05
 Reference value :  1.97503e-05
 Reference value :  1.97510e-05
 Reference value :  1.97523e-05
 Reference value :  1.97534e-05
 Reference value :  1.97545e-05
 Reference value :  1.97558e-05
 Reference value :  1.97583e-05
 Reference value :  1.97636e-05
 Reference value :  1.98192e-05
 Reference value :  2.00000e-05
 Reference value :  2.00001e-05
 Reference value :  2.00001e-05
 Reference value :  2.00002e-05
 Reference value :  2.00005e-05
 Reference value :  2.00008e-05
 Reference value :  2.00016e-05
 Reference value :  2.00024e-05
 Reference value :  2.00029e-05
 Reference value :  2.00039e-05
 Reference value :  2.00048e-05
 Reference value :  2.00066e-05
 Reference value :  2.00084e-05
 Reference value :  2.00102e-05
 Reference value :  2.00119e-05
 Reference value :  2.00136e-05
 Reference value :  2.00154e-05
 Reference value :  2.00175e-05
 Reference value :  2.00248e-05
 Reference value :  2.00650e-05
 Reference value :  2.01191e-05
 Reference value :  2.02087e-05
 Reference value :  2.02501e-05
 Reference value :  2.02502e-05
 Reference value :  2.02503e-05
 Reference value :  2.02507e-05
 Reference value :  2.02514e-05
 Reference value :  2.02530e-05
 Reference value :  2.02540e-05
 Reference value :  2.02560e-05
 Reference value :  2.02875e-05
 Reference value :  2.05000e-05
 Reference value :  2.05001e-05
 Reference value :  2.05005e-05
 Reference value :  2.05009e-05
 Reference value :  2.05015e-05
 Reference value :  2.05027e-05
 Reference value :  2.05045e-05
 Reference value :  2.05060e-05
 Reference value :  2.05076e-05
 Reference value :  2.05105e-05
 Reference value :  2.05369e-05
 Reference value :  2.07501e-05
 Reference value :  2.07502e-05
 Reference value :  2.07503e-05
 Reference value :  2.07510e-05
 Reference value :  2.07519e-05
 Reference value :  2.07530e-05
 Reference value :  2.07534e-05
 Reference value :  2.07545e-05
 Reference value :  2.07558e-05
 Reference value :  2.07575e-05
 Reference value :  2.07610e-05
 Reference value :  2.08196e-05
 Reference value :  2.10000e-05
 Reference value :  2.10001e-05
 Reference value :  2.10002e-05
 Reference value :  2.10008e-05
 Reference value :  2.10016e-05
 Reference value :  2.10024e-05
 Reference value :  2.10034e-05
 Reference value :  2.10048e-05
 Reference value :  2.10076e-05
 Reference value :  2.10093e-05
 Reference value :  2.10111e-05
 Reference value :  2.10136e-05
 Reference value :  2.10164e-05
 Reference value :  2.10245e-05
 Reference value :  2.10492e-05
 Reference value :  2.10676e-05
 Reference value :  2.10778e-05
 Reference value :  2.11084e-05
 Reference value :  2.11386e-05
 Reference value :  2.11470e-05
 Reference value :  2.11631e-05
 Reference value :  2.11980e-05
 Reference value :  2.12388e-05
 Reference value :  2.12502e-05
 Reference value :  2.12503e-05
 Reference value :  2.12514e-05
 Reference value :  2.12534e-05
 Reference value :  2.12553e-05
 Reference value :  2.12588e-05
 Reference value :  2.12861e-05
 Reference value :  2.14824e-05
 Reference value :  2.15000e-05
 Reference value :  2.15001e-05
 Reference value :  2.15002e-05
 Reference value :  2.15008e-05
 Reference value :  2.15015e-05
 Reference value :  2.15028e-05
 Reference value :  2.15039e-05
 Reference value :  2.15054e-05
 Reference value :  2.15060e-05
 Reference value :  2.15075e-05
 Reference value :  2.15103e-05
 Reference value :  2.15221e-05
 Reference value :  2.16422e-05
 Reference value :  2.17501e-05
 Reference value :  2.17502e-05
 Reference value :  2.17503e-05
 Reference value :  2.17507e-05
 Reference value :  2.17514e-05
 Reference value :  2.17530e-05
 Reference value :  2.17534e-05
 Reference value :  2.17545e-05
 Reference value :  2.17558e-05
 Reference value :  2.17575e-05
 Reference value :  2.17596e-05
 Reference value :  2.17673e-05
 Reference value :  2.18783e-05
 Reference value :  2.20001e-05
 Reference value :  2.20001e-05
 Reference value :  2.20002e-05
 Reference value :  2.20008e-05
 Reference value :  2.20016e-05
 Reference value :  2.20024e-05
 Reference value :  2.20034e-05
 Reference value :  2.20044e-05
 Reference value :  2.20053e-05
 Reference value :  2.20075e-05
 Reference value :  2.20093e-05
 Reference value :  2.20102e-05
 Reference value :  2.20119e-05
 Reference value :  2.20135e-05
 Reference value :  2.20163e-05
 Reference value :  2.20241e-05
 Reference value :  2.20351e-05
 Reference value :  2.20403e-05
 Reference value :  2.20494e-05
 Reference value :  2.20856e-05
 Reference value :  2.22494e-05
 Reference value :  2.22501e-05
 Reference value :  2.22502e-05
 Reference value :  2.22503e-05
 Reference value :  2.22510e-05
 Reference value :  2.22519e-05
 Reference value :  2.22530e-05
 Reference value :  2.22540e-05
 Reference value :  2.22552e-05
 Reference value :  2.22589e-05
 Reference value :  2.22723e-05
 Reference value :  2.23151e-05
 Reference value :  2.24185e-05
 Reference value :  2.24839e-05
 Reference value :  2.25000e-05
 Reference value :  2.25001e-05
 Reference value :  2.25001e-05
 Reference value :  2.25002e-05
 Reference value :  2.25003e-05
 Reference value :  2.25008e-05
 Reference value :  2.25015e-05
 Reference value :  2.25023e-05
 Reference value :  2.25028e-05
 Reference value :  2.25039e-05
 Reference value :  2.25054e-05
 Reference value :  2.25060e-05
 Reference value :  2.25075e-05
 Reference value :  2.25092e-05
 Reference value :  2.25114e-05
 Reference value :  2.25221e-05
 Reference value :  2.25791e-05
 Reference value :  2.27072e-05
 Reference value :  2.27501e-05
 Reference value :  2.27502e-05
 Reference value :  2.27503e-05
 Reference value :  2.27510e-05
 Reference value :  2.27514e-05
 Reference value :  2.27523e-05
 Reference value :  2.27534e-05
 Reference value :  2.27545e-05
 Reference value :  2.27558e-05
 Reference value :  2.27575e-05
 Reference value :  2.27596e-05
 Reference value :  2.27745e-05
 Reference value :  2.30000e-05
 Reference value :  2.30001e-05
 Reference value :  2.30006e-05
 Reference value :  2.30013e-05
 Reference value :  2.30020e-05
 Reference value :  2.30035e-05
 Reference value :  2.30059e-05
 Reference value :  2.30084e-05
 Reference value :  2.30100e-05
 Reference value :  2.30119e-05
 Reference value :  2.30137e-05
 Reference value :  2.30156e-05
 Reference value :  2.30179e-05
 Reference value :  2.30201e-05
 Reference value :  2.30251e-05
 Reference value :  2.30413e-05
 Reference value :  2.30863e-05
 Reference value :  2.32105e-05
 Reference value :  2.32501e-05
 Reference value :  2.32502e-05
 Reference value :  2.32502e-05
 Reference value :  2.32503e-05
 Reference value :  2.32507e-05
 Reference value :  2.32514e-05
 Reference value :  2.32523e-05
 Reference value :  2.32530e-05
 Reference value :  2.32540e-05
 Reference value :  2.32552e-05
 Reference value :  2.32573e-05
 Reference value :  2.32649e-05
 Reference value :  2.33126e-05
 Reference value :  2.35000e-05
 Reference value :  2.35001e-05
 Reference value :  2.35002e-05
 Reference value :  2.35008e-05
 Reference value :  2.35016e-05
 Reference value :  2.35029e-05
 Reference value :  2.35040e-05
 Reference value :  2.35055e-05
 Reference value :  2.35062e-05
 Reference value :  2.35077e-05
 Reference value :  2.35096e-05
 Reference value :  2.35296e-05
 Reference value :  2.37501e-05
 Reference value :  2.37502e-05
 Reference value :  2.37507e-05
 Reference value :  2.37519e-05
 Reference value :  2.37534e-05
 Reference value :  2.37545e-05
 Reference value :  2.37558e-05
 Reference value :  2.37602e-05
 Reference value :  2.38067e-05
 Reference value :  2.40000e-05
 Reference value :  2.40001e-05
 Reference value :  2.40001e-05
 Reference value :  2.40002e-05
 Reference value :  2.40005e-05
 Reference value :  2.40012e-05
 Reference value :  2.40016e-05
 Reference value :  2.40024e-05
 Reference value :  2.40034e-05
 Reference value :  2.40045e-05
 Reference value :  2.40050e-05
 Reference value :  2.40063e-05
 Reference value :  2.40085e-05
 Reference value :  2.40112e-05
 Reference value :  2.40132e-05
 Reference value :  2.40152e-05
 Reference value :  2.40191e-05
 Reference value :  2.40320e-05
 Reference value :  2.41047e-05
 Reference value :  2.42501e-05
 Reference value :  2.42502e-05
 Reference value :  2.42502e-05
 Reference value :  2.42504e-05
 Reference value :  2.42514e-05
 Reference value :  2.42523e-05
 Reference value :  2.42530e-05
 Reference value :  2.42534e-05
 Reference value :  2.42546e-05
 Reference value :  2.42560e-05
 Reference value :  2.42652e-05
 Reference value :  2.43724e-05
 Reference value :  2.45000e-05
 Reference value :  2.45001e-05
 Reference value :  2.45003e-05
 Reference value :  2.45012e-05
 Reference value :  2.45020e-05
 Reference value :  2.45029e-05
 Reference value :  2.45047e-05
 Reference value :  2.45062e-05
 Reference value :  2.45077e-05
 Reference value :  2.45109e-05
 Reference value :  2.45295e-05
 Reference value :  2.47501e-05
 Reference value :  2.47502e-05
 Reference value :  2.47502e-05
 Reference value :  2.47504e-05
 Reference value :  2.47510e-05
 Reference value :  2.47519e-05
 Reference value :  2.47530e-05
 Reference value :  2.47534e-05
 Reference value :  2.47545e-05
 Reference value :  2.47558e-05
 Reference value :  2.47603e-05
 Reference value :  2.48072e-05
 Reference value :  2.50000e-05
 Reference value :  2.50001e-05
 Reference value :  2.50002e-05
 Reference value :  2.50003e-05
 Reference value :  2.50008e-05
 Reference value :  2.50016e-05
 Reference value :  2.50029e-05
 Reference value :  2.50045e-05
 Reference value :  2.50050e-05
 Reference value :  2.50056e-05
 Reference value :  2.50072e-05
 Reference value :  2.50088e-05
 Reference value :  2.50226e-05
 Reference value :  2.51207e-05
 Reference value :  2.52501e-05
 Reference value :  2.52502e-05
 Reference value :  2.52502e-05
 Reference value :  2.52507e-05
 Reference value :  2.52519e-05
 Reference value :  2.52536e-05
 Reference value :  2.52562e-05
 Reference value :  2.52662e-05
 Reference value :  2.55000e-05
 Reference value :  2.55000e-05
 Reference value :  2.55000e-05
 Reference value :  2.55001e-05
 Reference value :  2.55002e-05
 Reference value :  2.55016e-05
 Reference value :  2.55029e-05
 Reference value :  2.55045e-05
 Reference value :  2.55074e-05
 Reference value :  2.55224e-05
 Reference value :  2.55262e-05
 Reference value :  2.55317e-05
 Reference value :  2.55378e-05
 Reference value :  2.55535e-05
 Reference value :  2.56282e-05
 Reference value :  2.57502e-05
 Reference value :  2.57504e-05
 Reference value :  2.57519e-05
 Reference value :  2.57534e-05
 Reference value :  2.57559e-05
 Reference value :  2.57847e-05
 Reference value :  2.60000e-05
 Reference value :  2.60002e-05
 Reference value :  2.60008e-05
 Reference value :  2.60024e-05
 Reference value :  2.60040e-05
 Reference value :  2.60065e-05
 Reference value :  2.60115e-05
 Reference value :  2.60160e-05
 Reference value :  2.61375e-05
 Reference value :  2.62502e-05
 Reference value :  2.62507e-05
 Reference value :  2.62519e-05
 Reference value :  2.62534e-05
 Reference value :  2.62550e-05
 Reference value :  2.62582e-05
 Reference value :  2.63070e-05
 Reference value :  2.65007e-05
 Reference value :  2.65030e-05
 Reference value :  2.65044e-05
 Reference value :  2.65056e-05
 Reference value :  2.65094e-05
 Reference value :  2.65130e-05
 Reference value :  2.65158e-05
 Reference value :  2.65260e-05
 Reference value :  2.67501e-05
 Reference value :  2.67502e-05
 Reference value :  2.67510e-05
 Reference value :  2.67530e-05
 Reference value :  2.67545e-05
 Reference value :  2.67644e-05
 Reference value :  2.69305e-05
 Reference value :  2.70001e-05
 Reference value :  2.70003e-05
 Reference value :  2.70016e-05
 Reference value :  2.70029e-05
 Reference value :  2.70047e-05
 Reference value :  2.70062e-05
 Reference value :  2.70086e-05
 Reference value :  2.70204e-05
 Reference value :  2.71496e-05
 Reference value :  2.72502e-05
 Reference value :  2.72503e-05
 Reference value :  2.72510e-05
 Reference value :  2.72523e-05
 Reference value :  2.72534e-05
 Reference value :  2.72550e-05
 Reference value :  2.72603e-05
 Reference value :  2.73583e-05
 Reference value :  2.75001e-05
 Reference value :  2.75002e-05
 Reference value :  2.75008e-05
 Reference value :  2.75020e-05
 Reference value :  2.75034e-05
 Reference value :  2.75050e-05
 Reference value :  2.75085e-05
 Reference value :  2.75112e-05
 Reference value :  2.75143e-05
 Reference value :  2.75174e-05
 Reference value :  2.75264e-05
 Reference value :  2.75383e-05
 Reference value :  2.75470e-05
 Reference value :  2.75815e-05
 Reference value :  2.77501e-05
 Reference value :  2.77503e-05
 Reference value :  2.77510e-05
 Reference value :  2.77530e-05
 Reference value :  2.77546e-05
 Reference value :  2.77615e-05
 Reference value :  2.79789e-05
 Reference value :  2.80004e-05
 Reference value :  2.80015e-05
 Reference value :  2.80034e-05
 Reference value :  2.80063e-05
 Reference value :  2.80087e-05
 Reference value :  2.80163e-05
 Reference value :  2.81685e-05
 Reference value :  2.82502e-05
 Reference value :  2.82507e-05
 Reference value :  2.82519e-05
 Reference value :  2.82534e-05
 Reference value :  2.82550e-05
 Reference value :  2.82575e-05
 Reference value :  2.82636e-05
 Reference value :  2.83786e-05
 Reference value :  2.85000e-05
 Reference value :  2.85001e-05
 Reference value :  2.85002e-05
 Reference value :  2.85012e-05
 Reference value :  2.85024e-05
 Reference value :  2.85039e-05
 Reference value :  2.85053e-05
 Reference value :  2.85084e-05
 Reference value :  2.85102e-05
 Reference value :  2.85127e-05
 Reference value :  2.85145e-05
 Reference value :  2.85175e-05
 Reference value :  2.85647e-05
 Reference value :  2.86396e-05
 Reference value :  2.87501e-05
 Reference value :  2.87503e-05
 Reference value :  2.87514e-05
 Reference value :  2.87534e-05
 Reference value :  2.87560e-05
 Reference value :  2.87875e-05
 Reference value :  2.90001e-05
 Reference value :  2.90005e-05
 Reference value :  2.90015e-05
 Reference value :  2.90027e-05
 Reference value :  2.90045e-05
 Reference value :  2.90060e-05
 Reference value :  2.90085e-05
 Reference value :  2.90242e-05
 Reference value :  2.92501e-05
 Reference value :  2.92504e-05
 Reference value :  2.92519e-05
 Reference value :  2.92530e-05
 Reference value :  2.92534e-05
 Reference value :  2.92545e-05
 Reference value :  2.92566e-05
 Reference value :  2.92610e-05
 Reference value :  2.93795e-05
 Reference value :  2.95000e-05
 Reference value :  2.95002e-05
 Reference value :  2.95008e-05
 Reference value :  2.95024e-05
 Reference value :  2.95039e-05
 Reference value :  2.95048e-05
 Reference value :  2.95076e-05
 Reference value :  2.95102e-05
 Reference value :  2.95127e-05
 Reference value :  2.95145e-05
 Reference value :  2.95164e-05
 Reference value :  2.95209e-05
 Reference value :  2.95493e-05
 Reference value :  2.95686e-05
 Reference value :  2.95769e-05
 Reference value :  2.96131e-05
 Reference value :  2.96514e-05
 Reference value :  2.96712e-05
 Reference value :  2.96954e-05
 Reference value :  2.97245e-05
 Reference value :  2.97501e-05
 Reference value :  2.97502e-05
 Reference value :  2.97507e-05
 Reference value :  2.97523e-05
 Reference value :  2.97539e-05
 Reference value :  2.97587e-05
 Reference value :  2.99763e-05
 Reference value :  3.00001e-05
 Reference value :  3.00001e-05
 Reference value :  3.00005e-05
 Reference value :  3.00012e-05
 Reference value :  3.00019e-05
 Reference value :  3.00028e-05
 Reference value :  3.00039e-05
 Reference value :  3.00060e-05
 Reference value :  3.00075e-05
 Reference value :  3.00092e-05
 Reference value :  3.00114e-05
 Reference value :  3.00321e-05
 Reference value :  3.02501e-05
 Reference value :  3.02502e-05
 Reference value :  3.02503e-05
 Reference value :  3.02507e-05
 Reference value :  3.02514e-05
 Reference value :  3.02530e-05
 Reference value :  3.02540e-05
 Reference value :  3.02550e-05
 Reference value :  3.02566e-05
 Reference value :  3.02596e-05
 Reference value :  3.02747e-05
 Reference value :  3.04970e-05
 Reference value :  3.05001e-05
 Reference value :  3.05001e-05
 Reference value :  3.05003e-05
 Reference value :  3.05012e-05
 Reference value :  3.05020e-05
 Reference value :  3.05029e-05
 Reference value :  3.05039e-05
 Reference value :  3.05049e-05
 Reference value :  3.05067e-05
 Reference value :  3.05077e-05
 Reference value :  3.05093e-05
 Reference value :  3.05101e-05
 Reference value :  3.05118e-05
 Reference value :  3.05135e-05
 Reference value :  3.05153e-05
 Reference value :  3.05174e-05
 Reference value :  3.05237e-05
 Reference value :  3.05342e-05
 Reference value :  3.05392e-05
 Reference value :  3.05440e-05
 Reference value :  3.05595e-05
 Reference value :  3.06322e-05
 Reference value :  3.07501e-05
 Reference value :  3.07502e-05
 Reference value :  3.07502e-05
 Reference value :  3.07504e-05
 Reference value :  3.07510e-05
 Reference value :  3.07519e-05
 Reference value :  3.07530e-05
 Reference value :  3.07540e-05
 Reference value :  3.07552e-05
 Reference value :  3.07589e-05
 Reference value :  3.07723e-05
 Reference value :  3.09867e-05
 Reference value :  3.10000e-05
 Reference value :  3.10001e-05
 Reference value :  3.10002e-05
 Reference value :  3.10008e-05
 Reference value :  3.10016e-05
 Reference value :  3.10029e-05
 Reference value :  3.10047e-05
 Reference value :  3.10062e-05
 Reference value :  3.10077e-05
 Reference value :  3.10109e-05
 Reference value :  3.10293e-05
 Reference value :  3.12501e-05
 Reference value :  3.12502e-05
 Reference value :  3.12502e-05
 Reference value :  3.12504e-05
 Reference value :  3.12510e-05
 Reference value :  3.12519e-05
 Reference value :  3.12530e-05
 Reference value :  3.12534e-05
 Reference value :  3.12545e-05
 Reference value :  3.12558e-05
 Reference value :  3.12603e-05
 Reference value :  3.13069e-05
 Reference value :  3.15000e-05
 Reference value :  3.15001e-05
 Reference value :  3.15001e-05
 Reference value :  3.15002e-05
 Reference value :  3.15003e-05
 Reference value :  3.15008e-05
 Reference value :  3.15016e-05
 Reference value :  3.15024e-05
 Reference value :  3.15029e-05
 Reference value :  3.15040e-05
 Reference value :  3.15050e-05
 Reference value :  3.15063e-05
 Reference value :  3.15085e-05
 Reference value :  3.15112e-05
 Reference value :  3.15122e-05
 Reference value :  3.15152e-05
 Reference value :  3.15207e-05
 Reference value :  3.15271e-05
 Reference value :  3.15375e-05
 Reference value :  3.15595e-05
 Reference value :  3.16473e-05
 Reference value :  3.17501e-05
 Reference value :  3.17502e-05
 Reference value :  3.17507e-05
 Reference value :  3.17514e-05
 Reference value :  3.17530e-05
 Reference value :  3.17539e-05
 Reference value :  3.17559e-05
 Reference value :  3.17649e-05
 Reference value :  3.18687e-05
 Reference value :  3.20000e-05
 Reference value :  3.20001e-05
 Reference value :  3.20003e-05
 Reference value :  3.20012e-05
 Reference value :  3.20019e-05
 Reference value :  3.20028e-05
 Reference value :  3.20039e-05
 Reference value :  3.20054e-05
 Reference value :  3.20060e-05
 Reference value :  3.20075e-05
 Reference value :  3.20092e-05
 Reference value :  3.20114e-05
 Reference value :  3.20316e-05
 Reference value :  3.22501e-05
 Reference value :  3.22502e-05
 Reference value :  3.22507e-05
 Reference value :  3.22519e-05
 Reference value :  3.22534e-05
 Reference value :  3.22550e-05
 Reference value :  3.22566e-05
 Reference value :  3.22596e-05
 Reference value :  3.22895e-05
 Reference value :  3.25000e-05
 Reference value :  3.25001e-05
 Reference value :  3.25003e-05
 Reference value :  3.25016e-05
 Reference value :  3.25029e-05
 Reference value :  3.25044e-05
 Reference value :  3.25053e-05
 Reference value :  3.25076e-05
 Reference value :  3.25102e-05
 Reference value :  3.25119e-05
 Reference value :  3.25144e-05
 Reference value :  3.25189e-05
 Reference value :  3.25410e-05
 Reference value :  3.27389e-05
 Reference value :  3.27502e-05
 Reference value :  3.27503e-05
 Reference value :  3.27507e-05
 Reference value :  3.27514e-05
 Reference value :  3.27530e-05
 Reference value :  3.27540e-05
 Reference value :  3.27560e-05
 Reference value :  3.27654e-05
 Reference value :  3.29929e-05
 Reference value :  3.30001e-05
 Reference value :  3.30002e-05
 Reference value :  3.30012e-05
 Reference value :  3.30023e-05
 Reference value :  3.30033e-05
 Reference value :  3.30060e-05
 Reference value :  3.30084e-05
 Reference value :  3.30103e-05
 Reference value :  3.30167e-05
 Reference value :  3.30790e-05
 Reference value :  3.32501e-05
 Reference value :  3.32504e-05
 Reference value :  3.32523e-05
 Reference value :  3.32540e-05
 Reference value :  3.32558e-05
 Reference value :  3.32596e-05
 Reference value :  3.32745e-05
 Reference value :  3.34928e-05
 Reference value :  3.35001e-05
 Reference value :  3.35005e-05
 Reference value :  3.35016e-05
 Reference value :  3.35030e-05
 Reference value :  3.35047e-05
 Reference value :  3.35058e-05
 Reference value :  3.35082e-05
 Reference value :  3.35111e-05
 Reference value :  3.35181e-05
 Reference value :  3.35373e-05
 Reference value :  3.35617e-05
 Reference value :  3.35780e-05
 Reference value :  3.35894e-05
 Reference value :  3.37349e-05
 Reference value :  3.37502e-05
 Reference value :  3.37503e-05
 Reference value :  3.37514e-05
 Reference value :  3.37536e-05
 Reference value :  3.37553e-05
 Reference value :  3.37576e-05
 Reference value :  3.37747e-05
 Reference value :  3.40000e-05
 Reference value :  3.40000e-05
 Reference value :  3.40000e-05
 Reference value :  3.40001e-05
 Reference value :  3.40001e-05
 Reference value :  3.40004e-05
 Reference value :  3.40016e-05
 Reference value :  3.40029e-05
 Reference value :  3.40045e-05
 Reference value :  3.40062e-05
 Reference value :  3.40173e-05
 Reference value :  3.40224e-05
 Reference value :  3.40262e-05
 Reference value :  3.40291e-05
 Reference value :  3.40317e-05
 Reference value :  3.40358e-05
 Reference value :  3.40429e-05
 Reference value :  3.40548e-05
 Reference value :  3.41013e-05
 Reference value :  3.42229e-05
 Reference value :  3.42501e-05
 Reference value :  3.42502e-05
 Reference value :  3.42503e-05
 Reference value :  3.42510e-05
 Reference value :  3.42519e-05
 Reference value :  3.42530e-05
 Reference value :  3.42534e-05
 Reference value :  3.42545e-05
 Reference value :  3.42559e-05
 Reference value :  3.42587e-05
 Reference value :  3.42846e-05
 Reference value :  3.45000e-05
 Reference value :  3.45001e-05
 Reference value :  3.45005e-05
 Reference value :  3.45016e-05
 Reference value :  3.45029e-05
 Reference value :  3.45055e-05
 Reference value :  3.45078e-05
 Reference value :  3.45115e-05
 Reference value :  3.45160e-05
 Reference value :  3.45505e-05
 Reference value :  3.47501e-05
 Reference value :  3.47503e-05
 Reference value :  3.47510e-05
 Reference value :  3.47523e-05
 Reference value :  3.47534e-05
 Reference value :  3.47545e-05
 Reference value :  3.47566e-05
 Reference value :  3.48070e-05
 Reference value :  3.50000e-05
 Reference value :  3.50002e-05
 Reference value :  3.50008e-05
 Reference value :  3.50020e-05
 Reference value :  3.50034e-05
 Reference value :  3.50045e-05
 Reference value :  3.50055e-05
 Reference value :  3.50100e-05
 Reference value :  3.50112e-05
 Reference value :  3.50132e-05
 Reference value :  3.50152e-05
 Reference value :  3.50174e-05
 Reference value :  3.50239e-05
 Reference value :  3.50717e-05
 Reference value :  3.52501e-05
 Reference value :  3.52502e-05
 Reference value :  3.52502e-05
 Reference value :  3.52504e-05
 Reference value :  3.52514e-05
 Reference value :  3.52530e-05
 Reference value :  3.52540e-05
 Reference value :  3.52552e-05
 Reference value :  3.52589e-05
 Reference value :  3.52867e-05
 Reference value :  3.54411e-05
 Reference value :  3.55000e-05
 Reference value :  3.55002e-05
 Reference value :  3.55005e-05
 Reference value :  3.55012e-05
 Reference value :  3.55020e-05
 Reference value :  3.55029e-05
 Reference value :  3.55047e-05
 Reference value :  3.55062e-05
 Reference value :  3.55077e-05
 Reference value :  3.55109e-05
 Reference value :  3.55469e-05
 Reference value :  3.57501e-05
 Reference value :  3.57502e-05
 Reference value :  3.57503e-05
 Reference value :  3.57510e-05
 Reference value :  3.57519e-05
 Reference value :  3.57530e-05
 Reference value :  3.57540e-05
 Reference value :  3.57558e-05
 Reference value :  3.57636e-05
 Reference value :  3.58572e-05
 Reference value :  3.60007e-05
 Reference value :  3.60029e-05
 Reference value :  3.60043e-05
 Reference value :  3.60055e-05
 Reference value :  3.60079e-05
 Reference value :  3.60106e-05
 Reference value :  3.60130e-05
 Reference value :  3.60161e-05
 Reference value :  3.60207e-05
 Reference value :  3.60253e-05
 Reference value :  3.60306e-05
 Reference value :  3.60372e-05
 Reference value :  3.60427e-05
 Reference value :  3.60494e-05
 Reference value :  3.60608e-05
 Reference value :  3.60809e-05
 Reference value :  3.61516e-05
 Reference value :  3.62501e-05
 Reference value :  3.62502e-05
 Reference value :  3.62502e-05
 Reference value :  3.62504e-05
 Reference value :  3.62510e-05
 Reference value :  3.62519e-05
 Reference value :  3.62529e-05
 Reference value :  3.62539e-05
 Reference value :  3.62559e-05
 Reference value :  3.62614e-05
 Reference value :  3.62847e-05
 Reference value :  3.64703e-05
 Reference value :  3.65000e-05
 Reference value :  3.65001e-05
 Reference value :  3.65003e-05
 Reference value :  3.65012e-05
 Reference value :  3.65019e-05
 Reference value :  3.65028e-05
 Reference value :  3.65046e-05
 Reference value :  3.65060e-05
 Reference value :  3.65075e-05
 Reference value :  3.65103e-05
 Reference value :  3.65476e-05
 Reference value :  3.67501e-05
 Reference value :  3.67502e-05
 Reference value :  3.67510e-05
 Reference value :  3.67523e-05
 Reference value :  3.67534e-05
 Reference value :  3.67550e-05
 Reference value :  3.67566e-05
 Reference value :  3.67596e-05
 Reference value :  3.67749e-05
 Reference value :  3.70000e-05
 Reference value :  3.70001e-05
 Reference value :  3.70003e-05
 Reference value :  3.70012e-05
 Reference value :  3.70020e-05
 Reference value :  3.70029e-05
 Reference value :  3.70044e-05
 Reference value :  3.70059e-05
 Reference value :  3.70084e-05
 Reference value :  3.70102e-05
 Reference value :  3.70127e-05
 Reference value :  3.70145e-05
 Reference value :  3.70192e-05
 Reference value :  3.70918e-05
 Reference value :  3.71563e-05
 Reference value :  3.72501e-05
 Reference value :  3.72502e-05
 Reference value :  3.72504e-05
 Reference value :  3.72514e-05
 Reference value :  3.72530e-05
 Reference value :  3.72540e-05
 Reference value :  3.72575e-05
 Reference value :  3.72875e-05
 Reference value :  3.75000e-05
 Reference value :  3.75001e-05
 Reference value :  3.75003e-05
 Reference value :  3.75012e-05
 Reference value :  3.75023e-05
 Reference value :  3.75033e-05
 Reference value :  3.75046e-05
 Reference value :  3.75060e-05
 Reference value :  3.75075e-05
 Reference value :  3.75114e-05
 Reference value :  3.75790e-05
 Reference value :  3.77502e-05
 Reference value :  3.77503e-05
 Reference value :  3.77510e-05
 Reference value :  3.77519e-05
 Reference value :  3.77530e-05
 Reference value :  3.77540e-05
 Reference value :  3.77550e-05
 Reference value :  3.77558e-05
 Reference value :  3.77575e-05
 Reference value :  3.77596e-05
 Reference value :  3.77673e-05
 Reference value :  3.78192e-05
 Reference value :  3.80000e-05
 Reference value :  3.80001e-05
 Reference value :  3.80001e-05
 Reference value :  3.80003e-05
 Reference value :  3.80012e-05
 Reference value :  3.80020e-05
 Reference value :  3.80029e-05
 Reference value :  3.80039e-05
 Reference value :  3.80048e-05
 Reference value :  3.80066e-05
 Reference value :  3.80084e-05
 Reference value :  3.80102e-05
 Reference value :  3.80119e-05
 Reference value :  3.80136e-05
 Reference value :  3.80154e-05
 Reference value :  3.80174e-05
 Reference value :  3.80310e-05
 Reference value :  3.80477e-05
 Reference value :  3.80571e-05
 Reference value :  3.80647e-05
 Reference value :  3.80689e-05
 Reference value :  3.80905e-05
 Reference value :  3.81531e-05
 Reference value :  3.81869e-05
 Reference value :  3.82185e-05
 Reference value :  3.82501e-05
 Reference value :  3.82502e-05
 Reference value :  3.82504e-05
 Reference value :  3.82514e-05
 Reference value :  3.82530e-05
 Reference value :  3.82539e-05
 Reference value :  3.82559e-05
 Reference value :  3.82614e-05
 Reference value :  3.83124e-05
 Reference value :  3.85004e-05
 Reference value :  3.85017e-05
 Reference value :  3.85032e-05
 Reference value :  3.85045e-05
 Reference value :  3.85059e-05
 Reference value :  3.85074e-05
 Reference value :  3.85092e-05
 Reference value :  3.85113e-05
 Reference value :  3.85228e-05
 Reference value :  3.86477e-05
 Reference value :  3.87502e-05
 Reference value :  3.87503e-05
 Reference value :  3.87507e-05
 Reference value :  3.87514e-05
 Reference value :  3.87530e-05
 Reference value :  3.87539e-05
 Reference value :  3.87550e-05
 Reference value :  3.87565e-05
 Reference value :  3.87594e-05
 Reference value :  3.87664e-05
 Reference value :  3.89594e-05
 Reference value :  3.90001e-05
 Reference value :  3.90002e-05
 Reference value :  3.90008e-05
 Reference value :  3.90020e-05
 Reference value :  3.90029e-05
 Reference value :  3.90044e-05
 Reference value :  3.90053e-05
 Reference value :  3.90075e-05
 Reference value :  3.90103e-05
 Reference value :  3.90120e-05
 Reference value :  3.90136e-05
 Reference value :  3.90162e-05
 Reference value :  3.90205e-05
 Reference value :  3.90299e-05
 Reference value :  3.90360e-05
 Reference value :  3.90404e-05
 Reference value :  3.90508e-05
 Reference value :  3.90960e-05
 Reference value :  3.92501e-05
 Reference value :  3.92502e-05
 Reference value :  3.92503e-05
 Reference value :  3.92507e-05
 Reference value :  3.92514e-05
 Reference value :  3.92530e-05
 Reference value :  3.92540e-05
 Reference value :  3.92552e-05
 Reference value :  3.92589e-05
 Reference value :  3.92866e-05
 Reference value :  3.95000e-05
 Reference value :  3.95001e-05
 Reference value :  3.95002e-05
 Reference value :  3.95005e-05
 Reference value :  3.95016e-05
 Reference value :  3.95029e-05
 Reference value :  3.95047e-05
 Reference value :  3.95062e-05
 Reference value :  3.95086e-05
 Reference value :  3.95155e-05
 Reference value :  3.95818e-05
 Reference value :  3.97501e-05
 Reference value :  3.97502e-05
 Reference value :  3.97503e-05
 Reference value :  3.97510e-05
 Reference value :  3.97519e-05
 Reference value :  3.97534e-05
 Reference value :  3.97545e-05
 Reference value :  3.97558e-05
 Reference value :  3.97636e-05
 Reference value :  3.98571e-05
 Reference value :  4.00001e-05
 Reference value :  4.00002e-05
 Reference value :  4.00012e-05
 Reference value :  4.00024e-05
 Reference value :  4.00040e-05
 Reference value :  4.00055e-05
 Reference value :  4.00100e-05
 Reference value :  4.00122e-05
 Reference value :  4.00152e-05
 Reference value :  4.00191e-05
 Reference value :  4.00335e-05
 Reference value :  4.00448e-05
 Reference value :  4.00602e-05
 Reference value :  4.01248e-05
 Reference value :  4.02501e-05
 Reference value :  4.02502e-05
 Reference value :  4.02503e-05
 Reference value :  4.02514e-05
 Reference value :  4.02530e-05
 Reference value :  4.02539e-05
 Reference value :  4.02573e-05
 Reference value :  4.02857e-05
 Reference value :  4.05000e-05
 Reference value :  4.05001e-05
 Reference value :  4.05002e-05
 Reference value :  4.05005e-05
 Reference value :  4.05015e-05
 Reference value :  4.05028e-05
 Reference value :  4.05046e-05
 Reference value :  4.05060e-05
 Reference value :  4.05075e-05
 Reference value :  4.05103e-05
 Reference value :  4.05167e-05
 Reference value :  4.05791e-05
 Reference value :  4.07501e-05
 Reference value :  4.07502e-05
 Reference value :  4.07507e-05
 Reference value :  4.07514e-05
 Reference value :  4.07530e-05
 Reference value :  4.07534e-05
 Reference value :  4.07545e-05
 Reference value :  4.07558e-05
 Reference value :  4.07575e-05
 Reference value :  4.07610e-05
 Reference value :  4.07898e-05
 Reference value :  4.10000e-05
 Reference value :  4.10000e-05
 Reference value :  4.10002e-05
 Reference value :  4.10008e-05
 Reference value :  4.10016e-05
 Reference value :  4.10024e-05
 Reference value :  4.10029e-05
 Reference value :  4.10039e-05
 Reference value :  4.10048e-05
 Reference value :  4.10066e-05
 Reference value :  4.10084e-05
 Reference value :  4.10102e-05
 Reference value :  4.10119e-05
 Reference value :  4.10136e-05
 Reference value :  4.10154e-05
 Reference value :  4.10175e-05
 Reference value :  4.10211e-05
 Reference value :  4.10444e-05
 Reference value :  4.12501e-05
 Reference value :  4.12502e-05
 Reference value :  4.12507e-05
 Reference value :  4.12514e-05
 Reference value :  4.12523e-05
 Reference value :  4.12534e-05
 Reference value :  4.12546e-05
 Reference value :  4.12575e-05
 Reference value :  4.12655e-05
 Reference value :  4.13171e-05
 Reference value :  4.15000e-05
 Reference value :  4.15001e-05
 Reference value :  4.15002e-05
 Reference value :  4.15005e-05
 Reference value :  4.15012e-05
 Reference value :  4.15019e-05
 Reference value :  4.15028e-05
 Reference value :  4.15039e-05
 Reference value :  4.15060e-05
 Reference value :  4.15075e-05
 Reference value :  4.15103e-05
 Reference value :  4.15315e-05
 Reference value :  4.16421e-05
 Reference value :  4.17501e-05
 Reference value :  4.17502e-05
 Reference value :  4.17502e-05
 Reference value :  4.17503e-05
 Reference value :  4.17507e-05
 Reference value :  4.17514e-05
 Reference value :  4.17523e-05
 Reference value :  4.17534e-05
 Reference value :  4.17545e-05
 Reference value :  4.17558e-05
 Reference value :  4.17575e-05
 Reference value :  4.17596e-05
 Reference value :  4.17747e-05
 Reference value :  4.19971e-05
 Reference value :  4.20000e-05
 Reference value :  4.20001e-05
 Reference value :  4.20005e-05
 Reference value :  4.20016e-05
 Reference value :  4.20029e-05
 Reference value :  4.20044e-05
 Reference value :  4.20053e-05
 Reference value :  4.20074e-05
 Reference value :  4.20099e-05
 Reference value :  4.20150e-05
 Reference value :  4.20206e-05
 Reference value :  4.20393e-05
 Reference value :  4.20490e-05
 Reference value :  4.20701e-05
 Reference value :  4.21381e-05
 Reference value :  4.22501e-05
 Reference value :  4.22502e-05
 Reference value :  4.22507e-05
 Reference value :  4.22514e-05
 Reference value :  4.22530e-05
 Reference value :  4.22545e-05
 Reference value :  4.22553e-05
 Reference value :  4.22577e-05
 Reference value :  4.22750e-05
 Reference value :  4.25000e-05
 Reference value :  4.25000e-05
 Reference value :  4.25000e-05
 Reference value :  4.25000e-05
 Reference value :  4.25001e-05
 Reference value :  4.25002e-05
 Reference value :  4.25007e-05
 Reference value :  4.25016e-05
 Reference value :  4.25024e-05
 Reference value :  4.25029e-05
 Reference value :  4.25040e-05
 Reference value :  4.25045e-05
 Reference value :  4.25055e-05
 Reference value :  4.25120e-05
 Reference value :  4.25224e-05
 Reference value :  4.25262e-05
 Reference value :  4.25291e-05
 Reference value :  4.25317e-05
 Reference value :  4.25358e-05
 Reference value :  4.25429e-05
 Reference value :  4.25548e-05
 Reference value :  4.25833e-05
 Reference value :  4.26662e-05
 Reference value :  4.27501e-05
 Reference value :  4.27502e-05
 Reference value :  4.27504e-05
 Reference value :  4.27510e-05
 Reference value :  4.27519e-05
 Reference value :  4.27530e-05
 Reference value :  4.27540e-05
 Reference value :  4.27551e-05
 Reference value :  4.27614e-05
 Reference value :  4.28112e-05
 Reference value :  4.30000e-05
 Reference value :  4.30001e-05
 Reference value :  4.30002e-05
 Reference value :  4.30005e-05
 Reference value :  4.30012e-05
 Reference value :  4.30020e-05
 Reference value :  4.30029e-05
 Reference value :  4.30047e-05
 Reference value :  4.30065e-05
 Reference value :  4.30101e-05
 Reference value :  4.30128e-05
 Reference value :  4.30160e-05
 Reference value :  4.30505e-05
 Reference value :  4.32501e-05
 Reference value :  4.32502e-05
 Reference value :  4.32504e-05
 Reference value :  4.32514e-05
 Reference value :  4.32530e-05
 Reference value :  4.32534e-05
 Reference value :  4.32545e-05
 Reference value :  4.32558e-05
 Reference value :  4.32582e-05
 Reference value :  4.32697e-05
 Reference value :  4.34560e-05
 Reference value :  4.35007e-05
 Reference value :  4.35022e-05
 Reference value :  4.35030e-05
 Reference value :  4.35044e-05
 Reference value :  4.35050e-05
 Reference value :  4.35062e-05
 Reference value :  4.35094e-05
 Reference value :  4.35121e-05
 Reference value :  4.35139e-05
 Reference value :  4.35158e-05
 Reference value :  4.35200e-05
 Reference value :  4.35443e-05
 Reference value :  4.36787e-05
 Reference value :  4.37501e-05
 Reference value :  4.37502e-05
 Reference value :  4.37503e-05
 Reference value :  4.37510e-05
 Reference value :  4.37514e-05
 Reference value :  4.37530e-05
 Reference value :  4.37539e-05
 Reference value :  4.37551e-05
 Reference value :  4.37586e-05
 Reference value :  4.37708e-05
 Reference value :  4.38602e-05
 Reference value :  4.39334e-05
 Reference value :  4.40000e-05
 Reference value :  4.40001e-05
 Reference value :  4.40001e-05
 Reference value :  4.40002e-05
 Reference value :  4.40005e-05
 Reference value :  4.40012e-05
 Reference value :  4.40016e-05
 Reference value :  4.40024e-05
 Reference value :  4.40029e-05
 Reference value :  4.40040e-05
 Reference value :  4.40055e-05
 Reference value :  4.40062e-05
 Reference value :  4.40077e-05
 Reference value :  4.40096e-05
 Reference value :  4.40155e-05
 Reference value :  4.40466e-05
 Reference value :  4.41500e-05
 Reference value :  4.42501e-05
 Reference value :  4.42502e-05
 Reference value :  4.42502e-05
 Reference value :  4.42503e-05
 Reference value :  4.42504e-05
 Reference value :  4.42507e-05
 Reference value :  4.42514e-05
 Reference value :  4.42523e-05
 Reference value :  4.42534e-05
 Reference value :  4.42545e-05
 Reference value :  4.42558e-05
 Reference value :  4.42603e-05
 Reference value :  4.42826e-05
 Reference value :  4.45000e-05
 Reference value :  4.45001e-05
 Reference value :  4.45002e-05
 Reference value :  4.45005e-05
 Reference value :  4.45012e-05
 Reference value :  4.45020e-05
 Reference value :  4.45029e-05
 Reference value :  4.45040e-05
 Reference value :  4.45050e-05
 Reference value :  4.45063e-05
 Reference value :  4.45085e-05
 Reference value :  4.45112e-05
 Reference value :  4.45132e-05
 Reference value :  4.45152e-05
 Reference value :  4.45192e-05
 Reference value :  4.45263e-05
 Reference value :  4.45356e-05
 Reference value :  4.45410e-05
 Reference value :  4.45533e-05
 Reference value :  4.45806e-05
 Reference value :  4.47501e-05
 Reference value :  4.47502e-05
 Reference value :  4.47504e-05
 Reference value :  4.47514e-05
 Reference value :  4.47534e-05
 Reference value :  4.47546e-05
 Reference value :  4.47573e-05
 Reference value :  4.47718e-05
 Reference value :  4.48686e-05
 Reference value :  4.50000e-05
 Reference value :  4.50001e-05
 Reference value :  4.50002e-05
 Reference value :  4.50003e-05
 Reference value :  4.50008e-05
 Reference value :  4.50015e-05
 Reference value :  4.50023e-05
 Reference value :  4.50028e-05
 Reference value :  4.50039e-05
 Reference value :  4.50054e-05
 Reference value :  4.50060e-05
 Reference value :  4.50075e-05
 Reference value :  4.50103e-05
 Reference value :  4.50221e-05
 Reference value :  4.50792e-05
 Reference value :  4.52501e-05
 Reference value :  4.52502e-05
 Reference value :  4.52503e-05
 Reference value :  4.52507e-05
 Reference value :  4.52514e-05
 Reference value :  4.52523e-05
 Reference value :  4.52534e-05
 Reference value :  4.52545e-05
 Reference value :  4.52558e-05
 Reference value :  4.52584e-05
 Reference value :  4.52611e-05
 Reference value :  4.52899e-05
 Reference value :  4.54999e-05
 Reference value :  4.55000e-05
 Reference value :  4.55001e-05
 Reference value :  4.55002e-05
 Reference value :  4.55008e-05
 Reference value :  4.55016e-05
 Reference value :  4.55029e-05
 Reference value :  4.55044e-05
 Reference value :  4.55059e-05
 Reference value :  4.55076e-05
 Reference value :  4.55093e-05
 Reference value :  4.55111e-05
 Reference value :  4.55136e-05
 Reference value :  4.55164e-05
 Reference value :  4.55192e-05
 Reference value :  4.55317e-05
 Reference value :  4.55919e-05
 Reference value :  4.56131e-05
 Reference value :  4.56507e-05
 Reference value :  4.57501e-05
 Reference value :  4.57502e-05
 Reference value :  4.57504e-05
 Reference value :  4.57514e-05
 Reference value :  4.57530e-05
 Reference value :  4.57540e-05
 Reference value :  4.57575e-05
 Reference value :  4.57875e-05
 Reference value :  4.60001e-05
 Reference value :  4.60005e-05
 Reference value :  4.60015e-05
 Reference value :  4.60027e-05
 Reference value :  4.60045e-05
 Reference value :  4.60060e-05
 Reference value :  4.60085e-05
 Reference value :  4.60117e-05
 Reference value :  4.60370e-05
 Reference value :  4.62501e-05
 Reference value :  4.62502e-05
 Reference value :  4.62503e-05
 Reference value :  4.62510e-05
 Reference value :  4.62523e-05
 Reference value :  4.62534e-05
 Reference value :  4.62545e-05
 Reference value :  4.62558e-05
 Reference value :  4.62584e-05
 Reference value :  4.62636e-05
 Reference value :  4.63197e-05
 Reference value :  4.65000e-05
 Reference value :  4.65001e-05
 Reference value :  4.65002e-05
 Reference value :  4.65005e-05
 Reference value :  4.65012e-05
 Reference value :  4.65020e-05
 Reference value :  4.65029e-05
 Reference value :  4.65039e-05
 Reference value :  4.65048e-05
 Reference value :  4.65066e-05
 Reference value :  4.65084e-05
 Reference value :  4.65102e-05
 Reference value :  4.65119e-05
 Reference value :  4.65136e-05
 Reference value :  4.65154e-05
 Reference value :  4.65164e-05
 Reference value :  4.65209e-05
 Reference value :  4.65392e-05
 Reference value :  4.65482e-05
 Reference value :  4.65629e-05
 Reference value :  4.65665e-05
 Reference value :  4.65742e-05
 Reference value :  4.66126e-05
 Reference value :  4.66612e-05
 Reference value :  4.67027e-05
 Reference value :  4.67490e-05
 Reference value :  4.67501e-05
 Reference value :  4.67502e-05
 Reference value :  4.67504e-05
 Reference value :  4.67514e-05
 Reference value :  4.67530e-05
 Reference value :  4.67539e-05
 Reference value :  4.67559e-05
 Reference value :  4.67648e-05
 Reference value :  4.69760e-05
 Reference value :  4.70000e-05
 Reference value :  4.70001e-05
 Reference value :  4.70002e-05
 Reference value :  4.70008e-05
 Reference value :  4.70015e-05
 Reference value :  4.70028e-05
 Reference value :  4.70039e-05
 Reference value :  4.70053e-05
 Reference value :  4.70060e-05
 Reference value :  4.70075e-05
 Reference value :  4.70092e-05
 Reference value :  4.70114e-05
 Reference value :  4.70224e-05
 Reference value :  4.70818e-05
 Reference value :  4.72501e-05
 Reference value :  4.72502e-05
 Reference value :  4.72502e-05
 Reference value :  4.72504e-05
 Reference value :  4.72510e-05
 Reference value :  4.72514e-05
 Reference value :  4.72523e-05
 Reference value :  4.72534e-05
 Reference value :  4.72545e-05
 Reference value :  4.72558e-05
 Reference value :  4.72575e-05
 Reference value :  4.72596e-05
 Reference value :  4.72748e-05
 Reference value :  4.73787e-05
 Reference value :  4.75000e-05
 Reference value :  4.75001e-05
 Reference value :  4.75002e-05
 Reference value :  4.75005e-05
 Reference value :  4.75012e-05
 Reference value :  4.75020e-05
 Reference value :  4.75029e-05
 Reference value :  4.75039e-05
 Reference value :  4.75048e-05
 Reference value :  4.75066e-05
 Reference value :  4.75084e-05
 Reference value :  4.75103e-05
 Reference value :  4.75120e-05
 Reference value :  4.75136e-05
 Reference value :  4.75162e-05
 Reference value :  4.75205e-05
 Reference value :  4.75295e-05
 Reference value :  4.75329e-05
 Reference value :  4.75399e-05
 Reference value :  4.75647e-05
 Reference value :  4.76679e-05
[...]
 Reference value :  1.65570e-04
 Reference value :  1.65609e-04
 Reference value :  1.65728e-04
 Reference value :  1.65750e-04
 Reference value :  1.65750e-04
 Reference value :  1.65750e-04
 Reference value :  1.65751e-04
 Reference value :  1.65751e-04
 Reference value :  1.65752e-04
 Reference value :  1.65753e-04
 Reference value :  1.65755e-04
 Reference value :  1.65757e-04
 Reference value :  1.65772e-04
 Reference value :  1.65987e-04
 Reference value :  1.66000e-04
 Reference value :  1.66000e-04
 Reference value :  1.66000e-04
 Reference value :  1.66001e-04
 Reference value :  1.66002e-04
 Reference value :  1.66003e-04
 Reference value :  1.66004e-04
 Reference value :  1.66006e-04
 Reference value :  1.66006e-04
 Reference value :  1.66008e-04
 Reference value :  1.66011e-04
 Reference value :  1.66029e-04
 Reference value :  1.66250e-04
 Reference value :  1.66250e-04
 Reference value :  1.66250e-04
 Reference value :  1.66251e-04
 Reference value :  1.66252e-04
 Reference value :  1.66253e-04
 Reference value :  1.66253e-04
 Reference value :  1.66254e-04
 Reference value :  1.66256e-04
 Reference value :  1.66264e-04
 Reference value :  1.66357e-04
 Reference value :  1.66500e-04
 Reference value :  1.66500e-04
 Reference value :  1.66500e-04
 Reference value :  1.66501e-04
 Reference value :  1.66502e-04
 Reference value :  1.66503e-04
 Reference value :  1.66504e-04
 Reference value :  1.66505e-04
 Reference value :  1.66507e-04
 Reference value :  1.66510e-04
 Reference value :  1.66512e-04
 Reference value :  1.66514e-04
 Reference value :  1.66516e-04
 Reference value :  1.66524e-04
 Reference value :  1.66531e-04
 Reference value :  1.66538e-04
 Reference value :  1.66548e-04
 Reference value :  1.66575e-04
 Reference value :  1.66750e-04
 Reference value :  1.66750e-04
 Reference value :  1.66750e-04
 Reference value :  1.66751e-04
 Reference value :  1.66751e-04
 Reference value :  1.66753e-04
 Reference value :  1.66754e-04
 Reference value :  1.66756e-04
 Reference value :  1.66761e-04
 Reference value :  1.66786e-04
 Reference value :  1.67000e-04
 Reference value :  1.67000e-04
 Reference value :  1.67000e-04
 Reference value :  1.67001e-04
 Reference value :  1.67001e-04
 Reference value :  1.67002e-04
 Reference value :  1.67003e-04
 Reference value :  1.67005e-04
 Reference value :  1.67006e-04
 Reference value :  1.67007e-04
 Reference value :  1.67010e-04
 Reference value :  1.67022e-04
 Reference value :  1.67143e-04
 Reference value :  1.67250e-04
 Reference value :  1.67250e-04
 Reference value :  1.67250e-04
 Reference value :  1.67251e-04
 Reference value :  1.67251e-04
 Reference value :  1.67252e-04
 Reference value :  1.67253e-04
 Reference value :  1.67254e-04
 Reference value :  1.67256e-04
 Reference value :  1.67258e-04
 Reference value :  1.67261e-04
 Reference value :  1.67275e-04
 Reference value :  1.67319e-04
 Reference value :  1.67500e-04
 Reference value :  1.67500e-04
 Reference value :  1.67500e-04
 Reference value :  1.67500e-04
 Reference value :  1.67501e-04
 Reference value :  1.67502e-04
 Reference value :  1.67502e-04
 Reference value :  1.67503e-04
 Reference value :  1.67504e-04
 Reference value :  1.67505e-04
 Reference value :  1.67506e-04
 Reference value :  1.67508e-04
 Reference value :  1.67509e-04
 Reference value :  1.67510e-04
 Reference value :  1.67512e-04
 Reference value :  1.67514e-04
 Reference value :  1.67515e-04
 Reference value :  1.67519e-04
 Reference value :  1.67529e-04
 Reference value :  1.67559e-04
 Reference value :  1.67669e-04
 Reference value :  1.67750e-04
 Reference value :  1.67750e-04
 Reference value :  1.67750e-04
 Reference value :  1.67751e-04
 Reference value :  1.67752e-04
 Reference value :  1.67753e-04
 Reference value :  1.67756e-04
 Reference value :  1.67765e-04
 Reference value :  1.67875e-04
 Reference value :  1.68000e-04
 Reference value :  1.68000e-04
 Reference value :  1.68000e-04
 Reference value :  1.68001e-04
 Reference value :  1.68002e-04
 Reference value :  1.68003e-04
 Reference value :  1.68004e-04
 Reference value :  1.68005e-04
 Reference value :  1.68006e-04
 Reference value :  1.68007e-04
 Reference value :  1.68010e-04
 Reference value :  1.68032e-04
 Reference value :  1.68250e-04
 Reference value :  1.68250e-04
 Reference value :  1.68250e-04
 Reference value :  1.68251e-04
 Reference value :  1.68253e-04
 Reference value :  1.68254e-04
 Reference value :  1.68255e-04
 Reference value :  1.68257e-04
 Reference value :  1.68260e-04
 Reference value :  1.68289e-04
 Reference value :  1.68500e-04
 Reference value :  1.68500e-04
 Reference value :  1.68500e-04
 Reference value :  1.68501e-04
 Reference value :  1.68502e-04
 Reference value :  1.68503e-04
 Reference value :  1.68504e-04
 Reference value :  1.68505e-04
 Reference value :  1.68508e-04
 Reference value :  1.68510e-04
 Reference value :  1.68513e-04
 Reference value :  1.68516e-04
 Reference value :  1.68526e-04
 Reference value :  1.68623e-04
 Reference value :  1.68750e-04
 Reference value :  1.68750e-04
 Reference value :  1.68751e-04
 Reference value :  1.68752e-04
 Reference value :  1.68753e-04
 Reference value :  1.68755e-04
 Reference value :  1.68765e-04
 Reference value :  1.68993e-04
 Reference value :  1.69000e-04
 Reference value :  1.69000e-04
 Reference value :  1.69001e-04
 Reference value :  1.69002e-04
 Reference value :  1.69003e-04
 Reference value :  1.69004e-04
 Reference value :  1.69005e-04
 Reference value :  1.69007e-04
 Reference value :  1.69007e-04
 Reference value :  1.69009e-04
 Reference value :  1.69011e-04
 Reference value :  1.69022e-04
 Reference value :  1.69142e-04
 Reference value :  1.69250e-04
 Reference value :  1.69250e-04
 Reference value :  1.69250e-04
 Reference value :  1.69251e-04
 Reference value :  1.69252e-04
 Reference value :  1.69253e-04
 Reference value :  1.69253e-04
 Reference value :  1.69254e-04
 Reference value :  1.69256e-04
 Reference value :  1.69257e-04
 Reference value :  1.69261e-04
 Reference value :  1.69318e-04
 Reference value :  1.69500e-04
 Reference value :  1.69500e-04
 Reference value :  1.69501e-04
 Reference value :  1.69502e-04
 Reference value :  1.69503e-04
 Reference value :  1.69504e-04
 Reference value :  1.69505e-04
 Reference value :  1.69506e-04
 Reference value :  1.69507e-04
 Reference value :  1.69509e-04
 Reference value :  1.69511e-04
 Reference value :  1.69518e-04
 Reference value :  1.69527e-04
 Reference value :  1.69544e-04
 Reference value :  1.69560e-04
 Reference value :  1.69573e-04
 Reference value :  1.69582e-04
 Reference value :  1.69604e-04
 Reference value :  1.69681e-04
 Reference value :  1.69750e-04
 Reference value :  1.69750e-04
 Reference value :  1.69750e-04
 Reference value :  1.69751e-04
 Reference value :  1.69753e-04
 Reference value :  1.69755e-04
 Reference value :  1.69759e-04
 Reference value :  1.69775e-04
 Reference value :  1.69882e-04
 Reference value :  1.70000e-04
 Reference value :  1.70000e-04
 Reference value :  1.70000e-04
 Reference value :  1.70000e-04
 Reference value :  1.70000e-04
 Reference value :  1.70000e-04
 Reference value :  1.70000e-04
 Reference value :  1.70001e-04
 Reference value :  1.70002e-04
 Reference value :  1.70002e-04
 Reference value :  1.70003e-04
 Reference value :  1.70004e-04
 Reference value :  1.70004e-04
 Reference value :  1.70006e-04
 Reference value :  1.70009e-04
 Reference value :  1.70022e-04
 Reference value :  1.70026e-04
 Reference value :  1.70029e-04
 Reference value :  1.70032e-04
 Reference value :  1.70036e-04
 Reference value :  1.70040e-04
 Reference value :  1.70049e-04
 Reference value :  1.70083e-04
 Reference value :  1.70166e-04
 Reference value :  1.70250e-04
 Reference value :  1.70250e-04
 Reference value :  1.70250e-04
 Reference value :  1.70251e-04
 Reference value :  1.70251e-04
 Reference value :  1.70253e-04
 Reference value :  1.70253e-04
 Reference value :  1.70255e-04
 Reference value :  1.70257e-04
 Reference value :  1.70265e-04
 Reference value :  1.70311e-04
 Reference value :  1.70500e-04
 Reference value :  1.70500e-04
 Reference value :  1.70500e-04
 Reference value :  1.70500e-04
 Reference value :  1.70501e-04
 Reference value :  1.70502e-04
 Reference value :  1.70502e-04
 Reference value :  1.70503e-04
 Reference value :  1.70507e-04
 Reference value :  1.70510e-04
 Reference value :  1.70513e-04
 Reference value :  1.70516e-04
 Reference value :  1.70550e-04
 Reference value :  1.70750e-04
 Reference value :  1.70750e-04
 Reference value :  1.70750e-04
 Reference value :  1.70751e-04
 Reference value :  1.70752e-04
 Reference value :  1.70753e-04
 Reference value :  1.70754e-04
 Reference value :  1.70756e-04
 Reference value :  1.70760e-04
 Reference value :  1.70807e-04
 Reference value :  1.71000e-04
 Reference value :  1.71000e-04
 Reference value :  1.71000e-04
 Reference value :  1.71001e-04
 Reference value :  1.71002e-04
 Reference value :  1.71002e-04
 Reference value :  1.71003e-04
 Reference value :  1.71004e-04
 Reference value :  1.71005e-04
 Reference value :  1.71007e-04
 Reference value :  1.71011e-04
 Reference value :  1.71013e-04
 Reference value :  1.71015e-04
 Reference value :  1.71019e-04
 Reference value :  1.71029e-04
 Reference value :  1.71117e-04
 Reference value :  1.71250e-04
 Reference value :  1.71250e-04
 Reference value :  1.71251e-04
 Reference value :  1.71251e-04
 Reference value :  1.71253e-04
 Reference value :  1.71254e-04
 Reference value :  1.71255e-04
 Reference value :  1.71259e-04
 Reference value :  1.71272e-04
 Reference value :  1.71487e-04
 Reference value :  1.71500e-04
 Reference value :  1.71500e-04
 Reference value :  1.71500e-04
 Reference value :  1.71501e-04
 Reference value :  1.71502e-04
 Reference value :  1.71502e-04
 Reference value :  1.71503e-04
 Reference value :  1.71504e-04
 Reference value :  1.71506e-04
 Reference value :  1.71506e-04
 Reference value :  1.71508e-04
 Reference value :  1.71511e-04
 Reference value :  1.71529e-04
 Reference value :  1.71750e-04
 Reference value :  1.71750e-04
 Reference value :  1.71750e-04
 Reference value :  1.71751e-04
 Reference value :  1.71751e-04
 Reference value :  1.71752e-04
 Reference value :  1.71753e-04
 Reference value :  1.71753e-04
 Reference value :  1.71754e-04
 Reference value :  1.71756e-04
 Reference value :  1.71758e-04
 Reference value :  1.71764e-04
 Reference value :  1.71782e-04
 Reference value :  1.71957e-04
 Reference value :  1.72000e-04
 Reference value :  1.72000e-04
 Reference value :  1.72000e-04
 Reference value :  1.72001e-04
 Reference value :  1.72002e-04
 Reference value :  1.72003e-04
 Reference value :  1.72005e-04
 Reference value :  1.72007e-04
 Reference value :  1.72011e-04
 Reference value :  1.72013e-04
 Reference value :  1.72015e-04
 Reference value :  1.72017e-04
 Reference value :  1.72023e-04
 Reference value :  1.72030e-04
 Reference value :  1.72032e-04
 Reference value :  1.72040e-04
 Reference value :  1.72043e-04
 Reference value :  1.72046e-04
 Reference value :  1.72056e-04
 Reference value :  1.72068e-04
 Reference value :  1.72084e-04
 Reference value :  1.72126e-04
 Reference value :  1.72179e-04
 Reference value :  1.72250e-04
 Reference value :  1.72250e-04
 Reference value :  1.72250e-04
 Reference value :  1.72250e-04
 Reference value :  1.72251e-04
 Reference value :  1.72251e-04
 Reference value :  1.72253e-04
 Reference value :  1.72254e-04
 Reference value :  1.72255e-04
 Reference value :  1.72257e-04
 Reference value :  1.72265e-04
 Reference value :  1.72313e-04
 Reference value :  1.72479e-04
 Reference value :  1.72500e-04
 Reference value :  1.72500e-04
 Reference value :  1.72500e-04
 Reference value :  1.72500e-04
 Reference value :  1.72501e-04
 Reference value :  1.72502e-04
 Reference value :  1.72503e-04
 Reference value :  1.72505e-04
 Reference value :  1.72506e-04
 Reference value :  1.72508e-04
 Reference value :  1.72510e-04
 Reference value :  1.72517e-04
 Reference value :  1.72547e-04
 Reference value :  1.72750e-04
 Reference value :  1.72750e-04
 Reference value :  1.72750e-04
 Reference value :  1.72750e-04
 Reference value :  1.72751e-04
 Reference value :  1.72753e-04
 Reference value :  1.72754e-04
 Reference value :  1.72755e-04
 Reference value :  1.72757e-04
 Reference value :  1.72758e-04
 Reference value :  1.72764e-04
 Reference value :  1.72790e-04
 Reference value :  1.73000e-04
 Reference value :  1.73000e-04
 Reference value :  1.73000e-04
 Reference value :  1.73002e-04
 Reference value :  1.73003e-04
 Reference value :  1.73004e-04
 Reference value :  1.73005e-04
 Reference value :  1.73008e-04
 Reference value :  1.73010e-04
 Reference value :  1.73012e-04
 Reference value :  1.73014e-04
 Reference value :  1.73018e-04
 Reference value :  1.73032e-04
 Reference value :  1.73061e-04
 Reference value :  1.73101e-04
 Reference value :  1.73134e-04
 Reference value :  1.73160e-04
 Reference value :  1.73204e-04
 Reference value :  1.73250e-04
 Reference value :  1.73250e-04
 Reference value :  1.73251e-04
 Reference value :  1.73252e-04
 Reference value :  1.73253e-04
 Reference value :  1.73256e-04
 Reference value :  1.73273e-04
 Reference value :  1.73500e-04
 Reference value :  1.73500e-04
 Reference value :  1.73501e-04
 Reference value :  1.73502e-04
 Reference value :  1.73503e-04
 Reference value :  1.73504e-04
 Reference value :  1.73505e-04
 Reference value :  1.73507e-04
 Reference value :  1.73508e-04
 Reference value :  1.73510e-04
 Reference value :  1.73517e-04
 Reference value :  1.73547e-04
 Reference value :  1.73750e-04
 Reference value :  1.73750e-04
 Reference value :  1.73751e-04
 Reference value :  1.73752e-04
 Reference value :  1.73753e-04
 Reference value :  1.73754e-04
 Reference value :  1.73756e-04
 Reference value :  1.73758e-04
 Reference value :  1.73764e-04
 Reference value :  1.73819e-04
 Reference value :  1.74000e-04
 Reference value :  1.74000e-04
 Reference value :  1.74000e-04
 Reference value :  1.74001e-04
 Reference value :  1.74002e-04
 Reference value :  1.74002e-04
 Reference value :  1.74003e-04
 Reference value :  1.74004e-04
 Reference value :  1.74005e-04
 Reference value :  1.74007e-04
 Reference value :  1.74008e-04
 Reference value :  1.74010e-04
 Reference value :  1.74012e-04
 Reference value :  1.74014e-04
 Reference value :  1.74018e-04
 Reference value :  1.74030e-04
 Reference value :  1.74036e-04
 Reference value :  1.74045e-04
 Reference value :  1.74050e-04
 Reference value :  1.74087e-04
 Reference value :  1.74133e-04
 Reference value :  1.74250e-04
 Reference value :  1.74250e-04
 Reference value :  1.74251e-04
 Reference value :  1.74252e-04
 Reference value :  1.74253e-04
 Reference value :  1.74255e-04
 Reference value :  1.74262e-04
 Reference value :  1.74373e-04
 Reference value :  1.74500e-04
 Reference value :  1.74500e-04
 Reference value :  1.74501e-04
 Reference value :  1.74502e-04
 Reference value :  1.74503e-04
 Reference value :  1.74504e-04
 Reference value :  1.74506e-04
 Reference value :  1.74509e-04
 Reference value :  1.74511e-04
 Reference value :  1.74547e-04
 Reference value :  1.74750e-04
 Reference value :  1.74750e-04
 Reference value :  1.74751e-04
 Reference value :  1.74751e-04
 Reference value :  1.74753e-04
 Reference value :  1.74753e-04
 Reference value :  1.74755e-04
 Reference value :  1.74758e-04
 Reference value :  1.74807e-04
 Reference value :  1.75000e-04
 Reference value :  1.75000e-04
 Reference value :  1.75001e-04
 Reference value :  1.75002e-04
 Reference value :  1.75003e-04
 Reference value :  1.75004e-04
 Reference value :  1.75005e-04
 Reference value :  1.75007e-04
 Reference value :  1.75010e-04
 Reference value :  1.75011e-04
 Reference value :  1.75013e-04
 Reference value :  1.75015e-04
 Reference value :  1.75019e-04
 Reference value :  1.75029e-04
 Reference value :  1.75036e-04
 Reference value :  1.75042e-04
 Reference value :  1.75051e-04
 Reference value :  1.75078e-04
 Reference value :  1.75250e-04
 Reference value :  1.75250e-04
 Reference value :  1.75250e-04
 Reference value :  1.75250e-04
 Reference value :  1.75251e-04
 Reference value :  1.75252e-04
 Reference value :  1.75253e-04
 Reference value :  1.75254e-04
 Reference value :  1.75256e-04
 Reference value :  1.75261e-04
 Reference value :  1.75313e-04
 Reference value :  1.75500e-04
 Reference value :  1.75500e-04
 Reference value :  1.75500e-04
 Reference value :  1.75500e-04
 Reference value :  1.75501e-04
 Reference value :  1.75502e-04
 Reference value :  1.75502e-04
 Reference value :  1.75503e-04
 Reference value :  1.75504e-04
 Reference value :  1.75505e-04
 Reference value :  1.75506e-04
 Reference value :  1.75507e-04
 Reference value :  1.75509e-04
 Reference value :  1.75511e-04
 Reference value :  1.75522e-04
 Reference value :  1.75579e-04
 Reference value :  1.75750e-04
 Reference value :  1.75750e-04
 Reference value :  1.75750e-04
 Reference value :  1.75751e-04
 Reference value :  1.75751e-04
 Reference value :  1.75753e-04
 Reference value :  1.75754e-04
 Reference value :  1.75755e-04
 Reference value :  1.75756e-04
 Reference value :  1.75758e-04
 Reference value :  1.75760e-04
 Reference value :  1.75767e-04
 Reference value :  1.75820e-04
 Reference value :  1.76000e-04
 Reference value :  1.76000e-04
 Reference value :  1.76000e-04
 Reference value :  1.76001e-04
 Reference value :  1.76002e-04
 Reference value :  1.76003e-04
 Reference value :  1.76004e-04
 Reference value :  1.76006e-04
 Reference value :  1.76009e-04
 Reference value :  1.76012e-04
 Reference value :  1.76015e-04
 Reference value :  1.76023e-04
 Reference value :  1.76058e-04
 Reference value :  1.76118e-04
 Reference value :  1.76250e-04
 Reference value :  1.76250e-04
 Reference value :  1.76252e-04
 Reference value :  1.76254e-04
 Reference value :  1.76259e-04
 Reference value :  1.76493e-04
 Reference value :  1.76500e-04
 Reference value :  1.76501e-04
 Reference value :  1.76502e-04
 Reference value :  1.76504e-04
 Reference value :  1.76506e-04
 Reference value :  1.76509e-04
 Reference value :  1.76522e-04
 Reference value :  1.76750e-04
 Reference value :  1.76750e-04
 Reference value :  1.76751e-04
 Reference value :  1.76753e-04
 Reference value :  1.76756e-04
 Reference value :  1.76760e-04
 Reference value :  1.76878e-04
 Reference value :  1.77000e-04
 Reference value :  1.77000e-04
 Reference value :  1.77002e-04
 Reference value :  1.77003e-04
 Reference value :  1.77005e-04
 Reference value :  1.77008e-04
 Reference value :  1.77010e-04
 Reference value :  1.77014e-04
 Reference value :  1.77019e-04
 Reference value :  1.77064e-04
 Reference value :  1.77250e-04
 Reference value :  1.77250e-04
 Reference value :  1.77251e-04
 Reference value :  1.77253e-04
 Reference value :  1.77257e-04
 Reference value :  1.77317e-04
 Reference value :  1.77500e-04
 Reference value :  1.77500e-04
 Reference value :  1.77501e-04
 Reference value :  1.77503e-04
 Reference value :  1.77505e-04
 Reference value :  1.77507e-04
 Reference value :  1.77511e-04
 Reference value :  1.77579e-04
 Reference value :  1.77750e-04
 Reference value :  1.77751e-04
 Reference value :  1.77752e-04
 Reference value :  1.77754e-04
 Reference value :  1.77756e-04
 Reference value :  1.77760e-04
 Reference value :  1.77819e-04
 Reference value :  1.78000e-04
 Reference value :  1.78000e-04
 Reference value :  1.78002e-04
 Reference value :  1.78003e-04
 Reference value :  1.78005e-04
 Reference value :  1.78008e-04
 Reference value :  1.78015e-04
 Reference value :  1.78039e-04
 Reference value :  1.78070e-04
 Reference value :  1.78250e-04
 Reference value :  1.78250e-04
 Reference value :  1.78251e-04
 Reference value :  1.78253e-04
 Reference value :  1.78256e-04
 Reference value :  1.78291e-04
No. of Data Rows : 26043
ngspice-44 done
