
Note: Compatibility modes selected: hs a


Circuit: ** sch_path: /home/issa/cace/sar-adc-using-sky130-pdk/runs/run_2025-09-20_12-37-38/parameters/sampling_rate/run_13/sampling_rate.sch

option SCALE: Scale is set to 1e-06 for instance and model parameters
option SCALE: Scale is set to 1e-06 for instance and model parameters
option SCALE: Scale is set to 1e-06 for instance and model parameters
option SCALE: Scale is set to 1e-06 for instance and model parameters
Doing analysis at TEMP = 27.000000 and TNOM = 27.000000

Using KLU as Direct Linear Solver
Operating point simulation skipped by 'uic',
  now using transient initial conditions.
 Reference value :  1.00000e-12
 Reference value :  1.02800e-12
 Reference value :  1.19600e-12
 Reference value :  2.22715e-12
 Reference value :  6.39297e-12
 Reference value :  1.99597e-11
 Reference value :  1.00000e-10
 Reference value :  1.14372e-10
 Reference value :  1.71860e-10
 Reference value :  4.01814e-10
 Reference value :  9.61637e-10
 Reference value :  1.91779e-09
 Reference value :  3.31314e-09
 Reference value :  5.00584e-09
 Reference value :  7.17567e-09
 Reference value :  8.31055e-09
 Reference value :  9.02375e-09
 Reference value :  1.05772e-08
 Reference value :  1.24866e-08
 Reference value :  1.33644e-08
 Reference value :  1.50282e-08
 Reference value :  1.96145e-08
 Reference value :  2.99402e-08
 Reference value :  5.21665e-08
 Reference value :  1.10174e-07
 Reference value :  2.50100e-07
 Reference value :  2.50130e-07
 Reference value :  2.50207e-07
 Reference value :  2.50252e-07
 Reference value :  2.50378e-07
 Reference value :  2.50914e-07
 Reference value :  2.51636e-07
 Reference value :  2.52678e-07
 Reference value :  2.53967e-07
 Reference value :  2.55234e-07
 Reference value :  2.56689e-07
 Reference value :  2.59100e-07
 Reference value :  2.69486e-07
 Reference value :  2.98771e-07
 Reference value :  5.00000e-07
 Reference value :  5.00030e-07
 Reference value :  5.00108e-07
 Reference value :  5.00156e-07
 Reference value :  5.00220e-07
 Reference value :  5.00825e-07
 Reference value :  5.01283e-07
 Reference value :  5.02189e-07
 Reference value :  5.03256e-07
 Reference value :  5.03858e-07
 Reference value :  5.05211e-07
 Reference value :  5.07341e-07
 Reference value :  5.10263e-07
 Reference value :  5.13079e-07
 Reference value :  5.16412e-07
 Reference value :  5.23449e-07
 Reference value :  5.34407e-07
 Reference value :  5.99979e-07
 Reference value :  7.50110e-07
 Reference value :  7.50200e-07
 Reference value :  7.50255e-07
 Reference value :  7.50318e-07
 Reference value :  7.50684e-07
 Reference value :  7.50948e-07
 Reference value :  7.51387e-07
 Reference value :  7.52367e-07
 Reference value :  7.53028e-07
 Reference value :  7.54422e-07
 Reference value :  7.55090e-07
 Reference value :  7.56662e-07
 Reference value :  7.61365e-07
 Reference value :  7.84867e-07
 Reference value :  8.46425e-07
 Reference value :  1.00001e-06
 Reference value :  1.00010e-06
 Reference value :  1.00016e-06
 Reference value :  1.00034e-06
 Reference value :  1.00128e-06
 Reference value :  1.00219e-06
 Reference value :  1.00268e-06
 Reference value :  1.00391e-06
 Reference value :  1.00441e-06
 Reference value :  1.00557e-06
 Reference value :  1.00609e-06
 Reference value :  1.00756e-06
 Reference value :  1.00995e-06
 Reference value :  1.01142e-06
 Reference value :  1.01278e-06
 Reference value :  1.01388e-06
 Reference value :  1.01603e-06
 Reference value :  1.01708e-06
 Reference value :  1.01938e-06
 Reference value :  1.02612e-06
 Reference value :  1.05862e-06
 Reference value :  1.14465e-06
 Reference value :  1.20029e-06
 Reference value :  1.24460e-06
 Reference value :  1.25011e-06
 Reference value :  1.25017e-06
 Reference value :  1.25022e-06
 Reference value :  1.25032e-06
 Reference value :  1.25095e-06
 Reference value :  1.25139e-06
 Reference value :  1.25236e-06
 Reference value :  1.25373e-06
 Reference value :  1.25508e-06
 Reference value :  1.25673e-06
 Reference value :  1.26180e-06
 Reference value :  1.27050e-06
 Reference value :  1.27906e-06
 Reference value :  1.31154e-06
 Reference value :  1.49426e-06
 Reference value :  1.50001e-06
 Reference value :  1.50010e-06
 Reference value :  1.50011e-06
 Reference value :  1.50022e-06
 Reference value :  1.50083e-06
 Reference value :  1.50129e-06
 Reference value :  1.50218e-06
 Reference value :  1.50332e-06
 Reference value :  1.50395e-06
 Reference value :  1.50473e-06
 Reference value :  1.50657e-06
 Reference value :  1.50734e-06
 Reference value :  1.50817e-06
 Reference value :  1.50903e-06
 Reference value :  1.51120e-06
 Reference value :  1.51961e-06
 Reference value :  1.58458e-06
 Reference value :  1.75011e-06
 Reference value :  1.75017e-06
 Reference value :  1.75022e-06
 Reference value :  1.75044e-06
 Reference value :  1.75138e-06
 Reference value :  1.75236e-06
 Reference value :  1.75377e-06
 Reference value :  1.75506e-06
 Reference value :  1.75672e-06
 Reference value :  1.75844e-06
 Reference value :  1.76216e-06
 Reference value :  1.77537e-06
 Reference value :  1.85162e-06
 Reference value :  2.00001e-06
 Reference value :  2.00007e-06
 Reference value :  2.00011e-06
 Reference value :  2.00016e-06
 Reference value :  2.00034e-06
 Reference value :  2.00128e-06
 Reference value :  2.00176e-06
 Reference value :  2.00219e-06
 Reference value :  2.00329e-06
 Reference value :  2.00391e-06
 Reference value :  2.00441e-06
 Reference value :  2.00556e-06
 Reference value :  2.00609e-06
 Reference value :  2.00756e-06
 Reference value :  2.00973e-06
 Reference value :  2.01071e-06
 Reference value :  2.01284e-06
 Reference value :  2.01452e-06
 Reference value :  2.01645e-06
 Reference value :  2.01853e-06
 Reference value :  2.02130e-06
 Reference value :  2.03205e-06
 Reference value :  2.03855e-06
 Reference value :  2.04605e-06
 Reference value :  2.05151e-06
 Reference value :  2.05429e-06
 Reference value :  2.05660e-06
 Reference value :  2.05913e-06
 Reference value :  2.06370e-06
 Reference value :  2.08434e-06
 Reference value :  2.14225e-06
 Reference value :  2.25010e-06
 Reference value :  2.25017e-06
 Reference value :  2.25022e-06
 Reference value :  2.25032e-06
 Reference value :  2.25095e-06
 Reference value :  2.25138e-06
 Reference value :  2.25236e-06
 Reference value :  2.25378e-06
 Reference value :  2.25504e-06
 Reference value :  2.25667e-06
 Reference value :  2.26144e-06
 Reference value :  2.28468e-06
 Reference value :  2.41305e-06
 Reference value :  2.50003e-06
 Reference value :  2.50011e-06
 Reference value :  2.50016e-06
 Reference value :  2.50050e-06
 Reference value :  2.50128e-06
 Reference value :  2.50219e-06
 Reference value :  2.50323e-06
 Reference value :  2.50442e-06
 Reference value :  2.50616e-06
 Reference value :  2.50818e-06
 Reference value :  2.51036e-06
 Reference value :  2.51289e-06
 Reference value :  2.54489e-06
 Reference value :  2.75010e-06
 Reference value :  2.75017e-06
 Reference value :  2.75021e-06
 Reference value :  2.75032e-06
 Reference value :  2.75068e-06
 Reference value :  2.75138e-06
 Reference value :  2.75235e-06
 Reference value :  2.75377e-06
 Reference value :  2.75440e-06
 Reference value :  2.75577e-06
 Reference value :  2.75926e-06
 Reference value :  2.77281e-06
 Reference value :  2.80638e-06
 Reference value :  2.91068e-06
 Reference value :  3.00001e-06
 Reference value :  3.00010e-06
 Reference value :  3.00012e-06
 Reference value :  3.00034e-06
 Reference value :  3.00050e-06
 Reference value :  3.00083e-06
 Reference value :  3.00128e-06
 Reference value :  3.00176e-06
 Reference value :  3.00219e-06
 Reference value :  3.00329e-06
 Reference value :  3.00441e-06
 Reference value :  3.00498e-06
 Reference value :  3.00557e-06
 Reference value :  3.00609e-06
 Reference value :  3.00757e-06
 Reference value :  3.00999e-06
 Reference value :  3.01280e-06
 Reference value :  3.01389e-06
 Reference value :  3.01603e-06
 Reference value :  3.01707e-06
 Reference value :  3.01938e-06
 Reference value :  3.02610e-06
 Reference value :  3.05881e-06
 Reference value :  3.12342e-06
 Reference value :  3.20212e-06
 Reference value :  3.25010e-06
 Reference value :  3.25015e-06
 Reference value :  3.25022e-06
 Reference value :  3.25038e-06
 Reference value :  3.25119e-06
 Reference value :  3.25162e-06
 Reference value :  3.25267e-06
 Reference value :  3.25340e-06
 Reference value :  3.25394e-06
 Reference value :  3.25454e-06
 Reference value :  3.25513e-06
 Reference value :  3.25673e-06
 Reference value :  3.25947e-06
 Reference value :  3.26619e-06
 Reference value :  3.32501e-06
 Reference value :  3.50001e-06
 Reference value :  3.50007e-06
 Reference value :  3.50012e-06
 Reference value :  3.50034e-06
 Reference value :  3.50083e-06
 Reference value :  3.50128e-06
 Reference value :  3.50219e-06
 Reference value :  3.50323e-06
 Reference value :  3.50443e-06
 Reference value :  3.50617e-06
 Reference value :  3.50819e-06
 Reference value :  3.51037e-06
 Reference value :  3.51288e-06
 Reference value :  3.52867e-06
 Reference value :  3.64419e-06
 Reference value :  3.75013e-06
 Reference value :  3.75021e-06
 Reference value :  3.75032e-06
 Reference value :  3.75094e-06
 Reference value :  3.75185e-06
 Reference value :  3.75302e-06
 Reference value :  3.75440e-06
 Reference value :  3.75577e-06
 Reference value :  3.75758e-06
 Reference value :  3.76554e-06
 Reference value :  3.80585e-06
 Reference value :  3.90876e-06
 Reference value :  4.00003e-06
 Reference value :  4.00011e-06
 Reference value :  4.00016e-06
 Reference value :  4.00034e-06
 Reference value :  4.00050e-06
 Reference value :  4.00083e-06
 Reference value :  4.00128e-06
 Reference value :  4.00219e-06
 Reference value :  4.00329e-06
 Reference value :  4.00391e-06
 Reference value :  4.00440e-06
 Reference value :  4.00498e-06
 Reference value :  4.00557e-06
 Reference value :  4.00609e-06
 Reference value :  4.00671e-06
 Reference value :  4.00757e-06
 Reference value :  4.00844e-06
 Reference value :  4.00999e-06
 Reference value :  4.01143e-06
 Reference value :  4.01280e-06
 Reference value :  4.01388e-06
 Reference value :  4.01493e-06
 Reference value :  4.01707e-06
 Reference value :  4.01938e-06
 Reference value :  4.02610e-06
 Reference value :  4.04160e-06
 Reference value :  4.04582e-06
 Reference value :  4.05476e-06
 Reference value :  4.06597e-06
 Reference value :  4.07171e-06
 Reference value :  4.10207e-06
 Reference value :  4.19935e-06
 Reference value :  4.25013e-06
 Reference value :  4.25021e-06
 Reference value :  4.25032e-06
 Reference value :  4.25069e-06
 Reference value :  4.25138e-06
 Reference value :  4.25236e-06
 Reference value :  4.25373e-06
 Reference value :  4.25509e-06
 Reference value :  4.25675e-06
 Reference value :  4.25940e-06
 Reference value :  4.28489e-06
 Reference value :  4.39592e-06
 Reference value :  4.50000e-06
 Reference value :  4.50007e-06
 Reference value :  4.50012e-06
 Reference value :  4.50034e-06
 Reference value :  4.50129e-06
 Reference value :  4.50218e-06
 Reference value :  4.50396e-06
 Reference value :  4.50556e-06
 Reference value :  4.50737e-06
 Reference value :  4.50904e-06
 Reference value :  4.51121e-06
 Reference value :  4.51943e-06
 Reference value :  4.53808e-06
 Reference value :  4.54634e-06
 Reference value :  4.57441e-06
 Reference value :  4.61168e-06
 Reference value :  4.65568e-06
 Reference value :  4.75010e-06
 Reference value :  4.75017e-06
 Reference value :  4.75022e-06
 Reference value :  4.75044e-06
 Reference value :  4.75094e-06
 Reference value :  4.75185e-06
 Reference value :  4.75302e-06
 Reference value :  4.75437e-06
 Reference value :  4.75663e-06
 Reference value :  4.76133e-06
 Reference value :  4.78394e-06
 Reference value :  4.84132e-06
 Reference value :  5.00001e-06
 Reference value :  5.00010e-06
 Reference value :  5.00016e-06
 Reference value :  5.00034e-06
 Reference value :  5.00083e-06
 Reference value :  5.00128e-06
 Reference value :  5.00219e-06
 Reference value :  5.00329e-06
 Reference value :  5.00440e-06
 Reference value :  5.00557e-06
 Reference value :  5.00609e-06
 Reference value :  5.00757e-06
 Reference value :  5.00999e-06
 Reference value :  5.01280e-06
 Reference value :  5.01493e-06
 Reference value :  5.01707e-06
 Reference value :  5.01937e-06
 Reference value :  5.02273e-06
 Reference value :  5.03157e-06
 Reference value :  5.03685e-06
 Reference value :  5.04034e-06
 Reference value :  5.04442e-06
 Reference value :  5.04879e-06
 Reference value :  5.05973e-06
 Reference value :  5.08322e-06
 Reference value :  5.20401e-06
 Reference value :  5.25013e-06
 Reference value :  5.25021e-06
 Reference value :  5.25044e-06
 Reference value :  5.25138e-06
 Reference value :  5.25235e-06
 Reference value :  5.25373e-06
 Reference value :  5.25508e-06
 Reference value :  5.25786e-06
 Reference value :  5.26598e-06
 Reference value :  5.33932e-06
 Reference value :  5.50001e-06
 Reference value :  5.50007e-06
 Reference value :  5.50012e-06
 Reference value :  5.50016e-06
 Reference value :  5.50034e-06
 Reference value :  5.50050e-06
 Reference value :  5.50129e-06
 Reference value :  5.50176e-06
 Reference value :  5.50218e-06
 Reference value :  5.50332e-06
 Reference value :  5.50395e-06
 Reference value :  5.50554e-06
 Reference value :  5.50657e-06
 Reference value :  5.50734e-06
 Reference value :  5.50903e-06
 Reference value :  5.51119e-06
 Reference value :  5.51957e-06
 Reference value :  5.54754e-06
 Reference value :  5.75010e-06
 Reference value :  5.75017e-06
 Reference value :  5.75021e-06
 Reference value :  5.75032e-06
 Reference value :  5.75094e-06
 Reference value :  5.75185e-06
 Reference value :  5.75302e-06
 Reference value :  5.75439e-06
 Reference value :  5.75670e-06
 Reference value :  5.75842e-06
 Reference value :  5.76214e-06
 Reference value :  5.77522e-06
 Reference value :  5.84815e-06
 Reference value :  6.00001e-06
 Reference value :  6.00010e-06
 Reference value :  6.00016e-06
 Reference value :  6.00034e-06
 Reference value :  6.00083e-06
 Reference value :  6.00128e-06
 Reference value :  6.00219e-06
 Reference value :  6.00329e-06
 Reference value :  6.00441e-06
 Reference value :  6.00556e-06
 Reference value :  6.00670e-06
 Reference value :  6.00843e-06
 Reference value :  6.01071e-06
 Reference value :  6.01175e-06
 Reference value :  6.01368e-06
 Reference value :  6.01651e-06
 Reference value :  6.01880e-06
 Reference value :  6.02177e-06
 Reference value :  6.02632e-06
 Reference value :  6.03915e-06
 Reference value :  6.06936e-06
 Reference value :  6.11768e-06
 Reference value :  6.22200e-06
 Reference value :  6.25013e-06
 Reference value :  6.25021e-06
 Reference value :  6.25032e-06
 Reference value :  6.25094e-06
 Reference value :  6.25138e-06
 Reference value :  6.25185e-06
 Reference value :  6.25302e-06
 Reference value :  6.25375e-06
 Reference value :  6.25436e-06
 Reference value :  6.25501e-06
 Reference value :  6.25661e-06
 Reference value :  6.25757e-06
 Reference value :  6.26137e-06
 Reference value :  6.27229e-06
 Reference value :  6.33951e-06
 Reference value :  6.50001e-06
 Reference value :  6.50007e-06
 Reference value :  6.50012e-06
 Reference value :  6.50022e-06
 Reference value :  6.50050e-06
 Reference value :  6.50129e-06
 Reference value :  6.50218e-06
 Reference value :  6.50332e-06
 Reference value :  6.50473e-06
 Reference value :  6.50657e-06
 Reference value :  6.50734e-06
 Reference value :  6.50903e-06
 Reference value :  6.51119e-06
 Reference value :  6.51955e-06
 Reference value :  6.58508e-06
 Reference value :  6.75011e-06
 Reference value :  6.75020e-06
 Reference value :  6.75026e-06
 Reference value :  6.75068e-06
 Reference value :  6.75138e-06
 Reference value :  6.75235e-06
 Reference value :  6.75376e-06
 Reference value :  6.75504e-06
 Reference value :  6.75669e-06
 Reference value :  6.75842e-06
 Reference value :  6.76073e-06
 Reference value :  6.76829e-06
 Reference value :  6.80723e-06
 Reference value :  7.00000e-06
 Reference value :  7.00007e-06
 Reference value :  7.00012e-06
 Reference value :  7.00022e-06
 Reference value :  7.00083e-06
 Reference value :  7.00176e-06
 Reference value :  7.00219e-06
 Reference value :  7.00329e-06
 Reference value :  7.00391e-06
 Reference value :  7.00441e-06
 Reference value :  7.00556e-06
 Reference value :  7.00609e-06
 Reference value :  7.00756e-06
 Reference value :  7.00973e-06
 Reference value :  7.01072e-06
 Reference value :  7.01286e-06
 Reference value :  7.01447e-06
 Reference value :  7.01652e-06
 Reference value :  7.01881e-06
 Reference value :  7.02179e-06
 Reference value :  7.03097e-06
 Reference value :  7.06348e-06
 Reference value :  7.23513e-06
 Reference value :  7.25013e-06
 Reference value :  7.25021e-06
 Reference value :  7.25032e-06
 Reference value :  7.25069e-06
 Reference value :  7.25138e-06
 Reference value :  7.25235e-06
 Reference value :  7.25302e-06
 Reference value :  7.25436e-06
 Reference value :  7.25567e-06
 Reference value :  7.25757e-06
 Reference value :  7.26138e-06
 Reference value :  7.28359e-06
 Reference value :  7.33915e-06
 Reference value :  7.40417e-06
 Reference value :  7.50003e-06
 Reference value :  7.50010e-06
 Reference value :  7.50012e-06
 Reference value :  7.50022e-06
 Reference value :  7.50050e-06
 Reference value :  7.50129e-06
 Reference value :  7.50218e-06
 Reference value :  7.50332e-06
 Reference value :  7.50395e-06
 Reference value :  7.50553e-06
 Reference value :  7.50734e-06
 Reference value :  7.50903e-06
 Reference value :  7.51119e-06
 Reference value :  7.51955e-06
 Reference value :  7.58517e-06
 Reference value :  7.75011e-06
 Reference value :  7.75017e-06
 Reference value :  7.75021e-06
 Reference value :  7.75026e-06
 Reference value :  7.75044e-06
 Reference value :  7.75094e-06
 Reference value :  7.75138e-06
 Reference value :  7.75235e-06
 Reference value :  7.75302e-06
 Reference value :  7.75376e-06
 Reference value :  7.75438e-06
 Reference value :  7.75504e-06
 Reference value :  7.75669e-06
 Reference value :  7.75842e-06
 Reference value :  7.76073e-06
 Reference value :  7.76483e-06
 Reference value :  7.78710e-06
 Reference value :  7.92188e-06
 Reference value :  8.00001e-06
 Reference value :  8.00007e-06
 Reference value :  8.00011e-06
 Reference value :  8.00022e-06
 Reference value :  8.00050e-06
 Reference value :  8.00128e-06
 Reference value :  8.00219e-06
 Reference value :  8.00329e-06
 Reference value :  8.00441e-06
 Reference value :  8.00556e-06
 Reference value :  8.00670e-06
 Reference value :  8.00756e-06
 Reference value :  8.00927e-06
 Reference value :  8.01079e-06
 Reference value :  8.01289e-06
 Reference value :  8.01724e-06
 Reference value :  8.02521e-06
 Reference value :  8.03188e-06
 Reference value :  8.03916e-06
 Reference value :  8.06033e-06
 Reference value :  8.11387e-06
 Reference value :  8.23160e-06
 Reference value :  8.25013e-06
 Reference value :  8.25021e-06
 Reference value :  8.25032e-06
 Reference value :  8.25095e-06
 Reference value :  8.25186e-06
 Reference value :  8.25303e-06
 Reference value :  8.25387e-06
 Reference value :  8.25565e-06
 Reference value :  8.25925e-06
 Reference value :  8.26492e-06
 Reference value :  8.32545e-06
 Reference value :  8.50000e-06
 Reference value :  8.50007e-06
 Reference value :  8.50012e-06
 Reference value :  8.50035e-06
 Reference value :  8.50096e-06
 Reference value :  8.50213e-06
 Reference value :  8.50262e-06
 Reference value :  8.50382e-06
 Reference value :  8.50534e-06
 Reference value :  8.50600e-06
 Reference value :  8.50885e-06
 Reference value :  8.51894e-06
 Reference value :  8.52429e-06
 Reference value :  8.52842e-06
 Reference value :  8.53145e-06
 Reference value :  8.53645e-06
 Reference value :  8.54082e-06
 Reference value :  8.54602e-06
 Reference value :  8.56033e-06
 Reference value :  8.59025e-06
 Reference value :  8.68472e-06
 Reference value :  8.75013e-06
 Reference value :  8.75020e-06
 Reference value :  8.75026e-06
 Reference value :  8.75045e-06
 Reference value :  8.75138e-06
 Reference value :  8.75236e-06
 Reference value :  8.75377e-06
 Reference value :  8.75504e-06
 Reference value :  8.75667e-06
 Reference value :  8.76145e-06
 Reference value :  8.78397e-06
 Reference value :  8.90595e-06
No. of Data Rows : 1325
ngspice-44 done
