
Note: Compatibility modes selected: hs a


Circuit: ** sch_path: /home/samantha/cace/sar-adc-using-sky130-pdk/runs/run_2025-08-29_13-37-29/parameters/power/run_03/power_consumption.sch

option SCALE: Scale is set to 1e-06 for instance and model parameters
option SCALE: Scale is set to 1e-06 for instance and model parameters
option SCALE: Scale is set to 1e-06 for instance and model parameters
option SCALE: Scale is set to 1e-06 for instance and model parameters
Doing analysis at TEMP = 27.000000 and TNOM = 27.000000

Using KLU as Direct Linear Solver
Operating point simulation skipped by 'uic',
  now using transient initial conditions.
 Reference value :  5.00000e-12
 Reference value :  5.14000e-12
 Reference value :  5.42000e-12
 Reference value :  5.98000e-12
 Reference value :  8.69068e-12
 Reference value :  1.60970e-11
 Reference value :  2.22620e-11
 Reference value :  3.45920e-11
 Reference value :  5.92520e-11
 Reference value :  1.98710e-10
 Reference value :  3.55197e-10
 Reference value :  5.00000e-10
 Reference value :  5.15235e-10
 Reference value :  5.45705e-10
 Reference value :  6.06644e-10
 Reference value :  7.28523e-10
 Reference value :  9.72281e-10
 Reference value :  1.27051e-09
 Reference value :  1.62877e-09
 Reference value :  2.15512e-09
 Reference value :  2.69571e-09
 Reference value :  3.49484e-09
 Reference value :  4.39503e-09
 Reference value :  5.52747e-09
 Reference value :  6.80919e-09
 Reference value :  7.83278e-09
 Reference value :  8.85847e-09
 Reference value :  9.91291e-09
 Reference value :  1.27775e-08
 Reference value :  1.55068e-08
 Reference value :  2.62695e-08
 Reference value :  3.37438e-08
 Reference value :  4.12570e-08
 Reference value :  4.76870e-08
 Reference value :  5.25877e-08
 Reference value :  5.74480e-08
 Reference value :  7.86744e-08
 Reference value :  1.58619e-07
 Reference value :  4.53049e-07
 Reference value :  5.27687e-07
 Reference value :  6.93810e-07
 Reference value :  1.00050e-06
 Reference value :  1.00065e-06
 Reference value :  1.00085e-06
 Reference value :  1.00100e-06
 Reference value :  1.00103e-06
 Reference value :  1.00109e-06
 Reference value :  1.00121e-06
 Reference value :  1.00139e-06
 Reference value :  1.00197e-06
 Reference value :  1.00242e-06
 Reference value :  1.00283e-06
 Reference value :  1.00344e-06
 Reference value :  1.00415e-06
 Reference value :  1.00467e-06
 Reference value :  1.00526e-06
 Reference value :  1.00588e-06
 Reference value :  1.00669e-06
 Reference value :  1.00747e-06
 Reference value :  1.00878e-06
 Reference value :  1.01022e-06
 Reference value :  1.01283e-06
 Reference value :  1.01599e-06
 Reference value :  1.02232e-06
 Reference value :  1.03291e-06
 Reference value :  1.05050e-06
 Reference value :  1.13716e-06
 Reference value :  1.24303e-06
 Reference value :  1.87829e-06
 Reference value :  2.00000e-06
 Reference value :  2.00005e-06
 Reference value :  2.00015e-06
 Reference value :  2.00035e-06
 Reference value :  2.00050e-06
 Reference value :  2.00053e-06
 Reference value :  2.00060e-06
 Reference value :  2.00074e-06
 Reference value :  2.00102e-06
 Reference value :  2.00139e-06
 Reference value :  2.00179e-06
 Reference value :  2.00217e-06
 Reference value :  2.00261e-06
 Reference value :  2.00312e-06
 Reference value :  2.00378e-06
 Reference value :  2.00443e-06
 Reference value :  2.00512e-06
 Reference value :  2.00618e-06
 Reference value :  2.00725e-06
 Reference value :  2.00877e-06
 Reference value :  2.00996e-06
 Reference value :  2.01121e-06
 Reference value :  2.01272e-06
 Reference value :  2.01439e-06
 Reference value :  2.01598e-06
 Reference value :  2.01794e-06
 Reference value :  2.02363e-06
 Reference value :  2.02944e-06
 Reference value :  2.08572e-06
 Reference value :  2.26893e-06
 Reference value :  3.00050e-06
 Reference value :  3.00055e-06
 Reference value :  3.00065e-06
 Reference value :  3.00085e-06
 Reference value :  3.00103e-06
 Reference value :  3.00124e-06
 Reference value :  3.00178e-06
 Reference value :  3.00219e-06
 Reference value :  3.00265e-06
 Reference value :  3.00378e-06
 Reference value :  3.00430e-06
 Reference value :  3.00548e-06
 Reference value :  3.00684e-06
 Reference value :  3.00846e-06
 Reference value :  3.00946e-06
 Reference value :  3.01060e-06
 Reference value :  3.01223e-06
 Reference value :  3.01737e-06
 Reference value :  3.02273e-06
 Reference value :  3.04299e-06
 Reference value :  3.09396e-06
 Reference value :  3.26913e-06
 Reference value :  3.96983e-06
 Reference value :  4.00005e-06
 Reference value :  4.00015e-06
 Reference value :  4.00050e-06
 Reference value :  4.00060e-06
 Reference value :  4.00102e-06
 Reference value :  4.00139e-06
 Reference value :  4.00179e-06
 Reference value :  4.00221e-06
 Reference value :  4.00321e-06
 Reference value :  4.00376e-06
 Reference value :  4.00429e-06
 Reference value :  4.00488e-06
 Reference value :  4.00544e-06
 Reference value :  4.00613e-06
 Reference value :  4.00678e-06
 Reference value :  4.00760e-06
 Reference value :  4.00969e-06
 Reference value :  4.01077e-06
 Reference value :  4.01185e-06
 Reference value :  4.01298e-06
 Reference value :  4.01384e-06
 Reference value :  4.01467e-06
 Reference value :  4.01563e-06
 Reference value :  4.01664e-06
 Reference value :  4.01761e-06
 Reference value :  4.01878e-06
 Reference value :  4.02183e-06
 Reference value :  4.02824e-06
 Reference value :  4.03679e-06
 Reference value :  4.05080e-06
 Reference value :  4.13483e-06
 Reference value :  4.27375e-06
 Reference value :  4.50288e-06
 Reference value :  4.79923e-06
 Reference value :  5.00055e-06
 Reference value :  5.00085e-06
 Reference value :  5.00103e-06
 Reference value :  5.00110e-06
 Reference value :  5.00151e-06
 Reference value :  5.00178e-06
 Reference value :  5.00219e-06
 Reference value :  5.00266e-06
 Reference value :  5.00314e-06
 Reference value :  5.00381e-06
 Reference value :  5.00433e-06
 Reference value :  5.00548e-06
 Reference value :  5.00708e-06
 Reference value :  5.00967e-06
 Reference value :  5.01528e-06
 Reference value :  5.03556e-06
 Reference value :  5.11668e-06
 Reference value :  5.44118e-06
 Reference value :  6.00000e-06
 Reference value :  6.00015e-06
 Reference value :  6.00050e-06
 Reference value :  6.00060e-06
 Reference value :  6.00102e-06
 Reference value :  6.00139e-06
 Reference value :  6.00179e-06
 Reference value :  6.00217e-06
 Reference value :  6.00261e-06
 Reference value :  6.00312e-06
 Reference value :  6.00376e-06
 Reference value :  6.00442e-06
 Reference value :  6.00506e-06
 Reference value :  6.00614e-06
 Reference value :  6.00693e-06
 Reference value :  6.00781e-06
 Reference value :  6.00867e-06
 Reference value :  6.00967e-06
 Reference value :  6.01081e-06
 Reference value :  6.01432e-06
 Reference value :  6.02718e-06
 Reference value :  6.04360e-06
 Reference value :  6.13798e-06
 Reference value :  6.50259e-06
 Reference value :  7.00050e-06
 Reference value :  7.00065e-06
 Reference value :  7.00085e-06
 Reference value :  7.00103e-06
 Reference value :  7.00110e-06
 Reference value :  7.00151e-06
 Reference value :  7.00178e-06
 Reference value :  7.00219e-06
 Reference value :  7.00265e-06
 Reference value :  7.00314e-06
 Reference value :  7.00379e-06
 Reference value :  7.00431e-06
 Reference value :  7.00492e-06
 Reference value :  7.00547e-06
 Reference value :  7.00681e-06
 Reference value :  7.00842e-06
 Reference value :  7.01055e-06
 Reference value :  7.01220e-06
 Reference value :  7.01425e-06
 Reference value :  7.01728e-06
 Reference value :  7.02976e-06
 Reference value :  7.06072e-06
 Reference value :  7.14128e-06
 Reference value :  7.44735e-06
 Reference value :  8.00000e-06
 Reference value :  8.00015e-06
 Reference value :  8.00050e-06
 Reference value :  8.00060e-06
 Reference value :  8.00102e-06
 Reference value :  8.00139e-06
 Reference value :  8.00179e-06
 Reference value :  8.00221e-06
 Reference value :  8.00267e-06
 Reference value :  8.00321e-06
 Reference value :  8.00429e-06
 Reference value :  8.00488e-06
 Reference value :  8.00544e-06
 Reference value :  8.00613e-06
 Reference value :  8.00760e-06
 Reference value :  8.00969e-06
 Reference value :  8.01077e-06
 Reference value :  8.01185e-06
 Reference value :  8.01299e-06
 Reference value :  8.01384e-06
 Reference value :  8.01563e-06
 Reference value :  8.01663e-06
 Reference value :  8.01761e-06
 Reference value :  8.01878e-06
 Reference value :  8.02183e-06
 Reference value :  8.02824e-06
 Reference value :  8.05058e-06
 Reference value :  8.07571e-06
 Reference value :  8.16628e-06
 Reference value :  8.38382e-06
 Reference value :  8.55041e-06
 Reference value :  8.98285e-06
 Reference value :  9.00055e-06
 Reference value :  9.00085e-06
 Reference value :  9.00103e-06
 Reference value :  9.00124e-06
 Reference value :  9.00178e-06
 Reference value :  9.00219e-06
 Reference value :  9.00266e-06
 Reference value :  9.00314e-06
 Reference value :  9.00381e-06
 Reference value :  9.00433e-06
 Reference value :  9.00493e-06
 Reference value :  9.00548e-06
 Reference value :  9.00708e-06
 Reference value :  9.00967e-06
 Reference value :  9.01186e-06
 Reference value :  9.02202e-06
 Reference value :  9.06253e-06
 Reference value :  9.22454e-06
 Reference value :  9.87260e-06
 Reference value :  1.00000e-05
 Reference value :  1.00003e-05
 Reference value :  1.00005e-05
 Reference value :  1.00006e-05
 Reference value :  1.00007e-05
 Reference value :  1.00014e-05
 Reference value :  1.00022e-05
 Reference value :  1.00031e-05
 Reference value :  1.00044e-05
 Reference value :  1.00061e-05
 Reference value :  1.00069e-05
 Reference value :  1.00078e-05
 Reference value :  1.00087e-05
 Reference value :  1.00097e-05
 Reference value :  1.00108e-05
 Reference value :  1.00143e-05
 Reference value :  1.00190e-05
 Reference value :  1.00272e-05
 Reference value :  1.00437e-05
 Reference value :  1.01383e-05
 Reference value :  1.05037e-05
 Reference value :  1.10005e-05
 Reference value :  1.10005e-05
 Reference value :  1.10008e-05
 Reference value :  1.10010e-05
 Reference value :  1.10011e-05
 Reference value :  1.10015e-05
 Reference value :  1.10018e-05
 Reference value :  1.10022e-05
 Reference value :  1.10027e-05
 Reference value :  1.10031e-05
 Reference value :  1.10038e-05
 Reference value :  1.10043e-05
 Reference value :  1.10049e-05
 Reference value :  1.10055e-05
 Reference value :  1.10061e-05
 Reference value :  1.10068e-05
 Reference value :  1.10084e-05
 Reference value :  1.10094e-05
 Reference value :  1.10122e-05
 Reference value :  1.10142e-05
 Reference value :  1.10173e-05
 Reference value :  1.10225e-05
 Reference value :  1.10298e-05
 Reference value :  1.10420e-05
 Reference value :  1.10903e-05
 Reference value :  1.12433e-05
 Reference value :  1.18553e-05
 Reference value :  1.20000e-05
 Reference value :  1.20003e-05
 Reference value :  1.20005e-05
 Reference value :  1.20006e-05
 Reference value :  1.20007e-05
 Reference value :  1.20014e-05
 Reference value :  1.20018e-05
 Reference value :  1.20022e-05
 Reference value :  1.20032e-05
 Reference value :  1.20043e-05
 Reference value :  1.20054e-05
 Reference value :  1.20061e-05
 Reference value :  1.20068e-05
 Reference value :  1.20076e-05
 Reference value :  1.20086e-05
 Reference value :  1.20097e-05
 Reference value :  1.20108e-05
 Reference value :  1.20118e-05
 Reference value :  1.20130e-05
 Reference value :  1.20138e-05
 Reference value :  1.20147e-05
 Reference value :  1.20156e-05
 Reference value :  1.20176e-05
 Reference value :  1.20188e-05
 Reference value :  1.20218e-05
 Reference value :  1.20282e-05
 Reference value :  1.20499e-05
 Reference value :  1.20927e-05
 Reference value :  1.21046e-05
 Reference value :  1.21120e-05
 Reference value :  1.21177e-05
 Reference value :  1.21357e-05
 Reference value :  1.21647e-05
 Reference value :  1.22020e-05
 Reference value :  1.22648e-05
 Reference value :  1.24078e-05
 Reference value :  1.27776e-05
 Reference value :  1.30006e-05
 Reference value :  1.30009e-05
 Reference value :  1.30010e-05
 Reference value :  1.30010e-05
 Reference value :  1.30011e-05
 Reference value :  1.30012e-05
 Reference value :  1.30015e-05
 Reference value :  1.30018e-05
 Reference value :  1.30022e-05
 Reference value :  1.30027e-05
 Reference value :  1.30031e-05
 Reference value :  1.30038e-05
 Reference value :  1.30043e-05
 Reference value :  1.30055e-05
 Reference value :  1.30071e-05
 Reference value :  1.30097e-05
 Reference value :  1.30225e-05
 Reference value :  1.31202e-05
 Reference value :  1.34554e-05
 Reference value :  1.39023e-05
 Reference value :  1.40000e-05
 Reference value :  1.40000e-05
 Reference value :  1.40002e-05
 Reference value :  1.40004e-05
 Reference value :  1.40005e-05
 Reference value :  1.40007e-05
 Reference value :  1.40014e-05
 Reference value :  1.40022e-05
 Reference value :  1.40032e-05
 Reference value :  1.40038e-05
 Reference value :  1.40044e-05
 Reference value :  1.40060e-05
 Reference value :  1.40068e-05
 Reference value :  1.40087e-05
 Reference value :  1.40109e-05
 Reference value :  1.40145e-05
 Reference value :  1.40363e-05
 Reference value :  1.40993e-05
 Reference value :  1.46453e-05
 Reference value :  1.50005e-05
 Reference value :  1.50009e-05
 Reference value :  1.50010e-05
 Reference value :  1.50011e-05
 Reference value :  1.50012e-05
 Reference value :  1.50018e-05
 Reference value :  1.50022e-05
 Reference value :  1.50031e-05
 Reference value :  1.50043e-05
 Reference value :  1.50049e-05
 Reference value :  1.50055e-05
 Reference value :  1.50061e-05
 Reference value :  1.50068e-05
 Reference value :  1.50092e-05
 Reference value :  1.50143e-05
 Reference value :  1.50296e-05
 Reference value :  1.50905e-05
 Reference value :  1.53342e-05
 Reference value :  1.60000e-05
 Reference value :  1.60001e-05
 Reference value :  1.60005e-05
 Reference value :  1.60006e-05
 Reference value :  1.60010e-05
 Reference value :  1.60014e-05
 Reference value :  1.60018e-05
 Reference value :  1.60022e-05
 Reference value :  1.60032e-05
 Reference value :  1.60038e-05
 Reference value :  1.60043e-05
 Reference value :  1.60048e-05
 Reference value :  1.60054e-05
 Reference value :  1.60060e-05
 Reference value :  1.60074e-05
 Reference value :  1.60084e-05
 Reference value :  1.60100e-05
 Reference value :  1.60116e-05
 Reference value :  1.60133e-05
 Reference value :  1.60145e-05
 Reference value :  1.60156e-05
 Reference value :  1.60168e-05
 Reference value :  1.60180e-05
 Reference value :  1.60193e-05
 Reference value :  1.60229e-05
 Reference value :  1.60296e-05
 Reference value :  1.60479e-05
 Reference value :  1.60600e-05
 Reference value :  1.60712e-05
 Reference value :  1.60796e-05
 Reference value :  1.60880e-05
 Reference value :  1.60946e-05
 Reference value :  1.61080e-05
 Reference value :  1.61152e-05
 Reference value :  1.61254e-05
 Reference value :  1.61501e-05
 Reference value :  1.61747e-05
 Reference value :  1.62707e-05
 Reference value :  1.65685e-05
 Reference value :  1.70005e-05
 Reference value :  1.70007e-05
 Reference value :  1.70009e-05
 Reference value :  1.70010e-05
 Reference value :  1.70010e-05
 Reference value :  1.70012e-05
 Reference value :  1.70014e-05
 Reference value :  1.70021e-05
 Reference value :  1.70026e-05
 Reference value :  1.70031e-05
 Reference value :  1.70038e-05
 Reference value :  1.70045e-05
 Reference value :  1.70050e-05
 Reference value :  1.70062e-05
 Reference value :  1.70070e-05
 Reference value :  1.70079e-05
 Reference value :  1.70117e-05
 Reference value :  1.70211e-05
 Reference value :  1.70551e-05
 Reference value :  1.70991e-05
 Reference value :  1.73633e-05
 Reference value :  1.80000e-05
 Reference value :  1.80001e-05
 Reference value :  1.80002e-05
 Reference value :  1.80005e-05
 Reference value :  1.80005e-05
 Reference value :  1.80007e-05
 Reference value :  1.80010e-05
 Reference value :  1.80015e-05
 Reference value :  1.80020e-05
 Reference value :  1.80025e-05
 Reference value :  1.80035e-05
 Reference value :  1.80048e-05
 Reference value :  1.80064e-05
 Reference value :  1.80071e-05
 Reference value :  1.80079e-05
 Reference value :  1.80088e-05
 Reference value :  1.80107e-05
 Reference value :  1.80118e-05
 Reference value :  1.80154e-05
 Reference value :  1.80242e-05
 Reference value :  1.80489e-05
 Reference value :  1.81412e-05
 Reference value :  1.82642e-05
 Reference value :  1.90005e-05
 Reference value :  1.90007e-05
 Reference value :  1.90009e-05
 Reference value :  1.90010e-05
 Reference value :  1.90011e-05
 Reference value :  1.90014e-05
 Reference value :  1.90017e-05
 Reference value :  1.90021e-05
 Reference value :  1.90026e-05
 Reference value :  1.90031e-05
 Reference value :  1.90038e-05
 Reference value :  1.90045e-05
 Reference value :  1.90050e-05
 Reference value :  1.90056e-05
 Reference value :  1.90071e-05
 Reference value :  1.90088e-05
 Reference value :  1.90098e-05
 Reference value :  1.90109e-05
 Reference value :  1.90180e-05
 Reference value :  1.90311e-05
 Reference value :  1.90633e-05
 Reference value :  1.90940e-05
 Reference value :  1.91471e-05
 Reference value :  1.94655e-05
 Reference value :  2.00000e-05
 Reference value :  2.00001e-05
 Reference value :  2.00002e-05
 Reference value :  2.00004e-05
 Reference value :  2.00005e-05
 Reference value :  2.00006e-05
 Reference value :  2.00007e-05
 Reference value :  2.00010e-05
 Reference value :  2.00015e-05
 Reference value :  2.00020e-05
 Reference value :  2.00025e-05
 Reference value :  2.00030e-05
 Reference value :  2.00035e-05
 Reference value :  2.00041e-05
 Reference value :  2.00046e-05
 Reference value :  2.00052e-05
 Reference value :  2.00056e-05
 Reference value :  2.00068e-05
 Reference value :  2.00076e-05
 Reference value :  2.00085e-05
 Reference value :  2.00107e-05
 Reference value :  2.00117e-05
 Reference value :  2.00128e-05
 Reference value :  2.00137e-05
 Reference value :  2.00146e-05
 Reference value :  2.00167e-05
 Reference value :  2.00177e-05
 Reference value :  2.00190e-05
 Reference value :  2.00222e-05
 Reference value :  2.00292e-05
 Reference value :  2.00483e-05
 Reference value :  2.00572e-05
 Reference value :  2.00660e-05
 Reference value :  2.00749e-05
 Reference value :  2.00813e-05
 Reference value :  2.00873e-05
 Reference value :  2.01026e-05
 Reference value :  2.01274e-05
 Reference value :  2.01824e-05
 Reference value :  2.03139e-05
 Reference value :  2.06316e-05
 Reference value :  2.10005e-05
 Reference value :  2.10006e-05
 Reference value :  2.10008e-05
 Reference value :  2.10010e-05
 Reference value :  2.10010e-05
 Reference value :  2.10012e-05
 Reference value :  2.10014e-05
 Reference value :  2.10017e-05
 Reference value :  2.10021e-05
 Reference value :  2.10026e-05
 Reference value :  2.10038e-05
 Reference value :  2.10045e-05
 Reference value :  2.10050e-05
 Reference value :  2.10063e-05
 Reference value :  2.10070e-05
 Reference value :  2.10079e-05
 Reference value :  2.10118e-05
 Reference value :  2.10212e-05
 Reference value :  2.10567e-05
 Reference value :  2.11973e-05
 Reference value :  2.17600e-05
 Reference value :  2.20000e-05
 Reference value :  2.20004e-05
 Reference value :  2.20005e-05
 Reference value :  2.20005e-05
 Reference value :  2.20007e-05
 Reference value :  2.20010e-05
 Reference value :  2.20015e-05
 Reference value :  2.20025e-05
 Reference value :  2.20035e-05
 Reference value :  2.20041e-05
 Reference value :  2.20047e-05
 Reference value :  2.20053e-05
 Reference value :  2.20062e-05
 Reference value :  2.20068e-05
 Reference value :  2.20086e-05
 Reference value :  2.20095e-05
 Reference value :  2.20104e-05
 Reference value :  2.20115e-05
 Reference value :  2.20151e-05
 Reference value :  2.20267e-05
 Reference value :  2.20691e-05
 Reference value :  2.22336e-05
 Reference value :  2.28917e-05
 Reference value :  2.30005e-05
 Reference value :  2.30008e-05
 Reference value :  2.30010e-05
 Reference value :  2.30010e-05
 Reference value :  2.30011e-05
 Reference value :  2.30014e-05
 Reference value :  2.30021e-05
 Reference value :  2.30026e-05
 Reference value :  2.30038e-05
 Reference value :  2.30050e-05
 Reference value :  2.30063e-05
 Reference value :  2.30079e-05
 Reference value :  2.30118e-05
 Reference value :  2.30213e-05
 Reference value :  2.30568e-05
 Reference value :  2.31925e-05
 Reference value :  2.37353e-05
 Reference value :  2.40001e-05
 Reference value :  2.40004e-05
 Reference value :  2.40005e-05
 Reference value :  2.40006e-05
 Reference value :  2.40010e-05
 Reference value :  2.40015e-05
 Reference value :  2.40025e-05
 Reference value :  2.40035e-05
 Reference value :  2.40041e-05
 Reference value :  2.40046e-05
 Reference value :  2.40052e-05
 Reference value :  2.40056e-05
 Reference value :  2.40062e-05
 Reference value :  2.40069e-05
 Reference value :  2.40090e-05
 Reference value :  2.40106e-05
 Reference value :  2.40120e-05
 Reference value :  2.40135e-05
 Reference value :  2.40146e-05
 Reference value :  2.40155e-05
 Reference value :  2.40165e-05
 Reference value :  2.40176e-05
 Reference value :  2.40189e-05
 Reference value :  2.40221e-05
 Reference value :  2.40375e-05
 Reference value :  2.40599e-05
 Reference value :  2.41170e-05
 Reference value :  2.41681e-05
 Reference value :  2.42147e-05
 Reference value :  2.42496e-05
 Reference value :  2.42820e-05
 Reference value :  2.43275e-05
 Reference value :  2.44113e-05
 Reference value :  2.45286e-05
 Reference value :  2.48726e-05
 Reference value :  2.50005e-05
 Reference value :  2.50008e-05
 Reference value :  2.50010e-05
 Reference value :  2.50010e-05
 Reference value :  2.50012e-05
 Reference value :  2.50014e-05
 Reference value :  2.50021e-05
 Reference value :  2.50026e-05
 Reference value :  2.50031e-05
 Reference value :  2.50038e-05
 Reference value :  2.50050e-05
 Reference value :  2.50062e-05
 Reference value :  2.50071e-05
 Reference value :  2.50079e-05
 Reference value :  2.50118e-05
 Reference value :  2.50216e-05
 Reference value :  2.50576e-05
 Reference value :  2.51977e-05
 Reference value :  2.57585e-05
 Reference value :  2.60000e-05
 Reference value :  2.60001e-05
 Reference value :  2.60004e-05
 Reference value :  2.60005e-05
 Reference value :  2.60006e-05
 Reference value :  2.60010e-05
 Reference value :  2.60015e-05
 Reference value :  2.60020e-05
 Reference value :  2.60025e-05
 Reference value :  2.60030e-05
 Reference value :  2.60035e-05
 Reference value :  2.60048e-05
 Reference value :  2.60056e-05
 Reference value :  2.60065e-05
 Reference value :  2.60071e-05
 Reference value :  2.60088e-05
 Reference value :  2.60107e-05
 Reference value :  2.60118e-05
 Reference value :  2.60154e-05
 Reference value :  2.60187e-05
 Reference value :  2.60335e-05
 Reference value :  2.60488e-05
 Reference value :  2.61405e-05
 Reference value :  2.65074e-05
 Reference value :  2.70005e-05
 Reference value :  2.70007e-05
 Reference value :  2.70009e-05
 Reference value :  2.70010e-05
 Reference value :  2.70010e-05
 Reference value :  2.70011e-05
 Reference value :  2.70014e-05
 Reference value :  2.70021e-05
 Reference value :  2.70031e-05
 Reference value :  2.70038e-05
 Reference value :  2.70045e-05
 Reference value :  2.70050e-05
 Reference value :  2.70056e-05
 Reference value :  2.70071e-05
 Reference value :  2.70088e-05
 Reference value :  2.70109e-05
 Reference value :  2.70147e-05
 Reference value :  2.70233e-05
 Reference value :  2.70437e-05
 Reference value :  2.70941e-05
 Reference value :  2.71461e-05
 Reference value :  2.74569e-05
 Reference value :  2.78713e-05
 Reference value :  2.80000e-05
 Reference value :  2.80004e-05
 Reference value :  2.80005e-05
 Reference value :  2.80005e-05
 Reference value :  2.80007e-05
 Reference value :  2.80015e-05
 Reference value :  2.80025e-05
 Reference value :  2.80035e-05
 Reference value :  2.80041e-05
 Reference value :  2.80046e-05
 Reference value :  2.80056e-05
 Reference value :  2.80068e-05
 Reference value :  2.80085e-05
 Reference value :  2.80107e-05
 Reference value :  2.80117e-05
 Reference value :  2.80128e-05
 Reference value :  2.80137e-05
 Reference value :  2.80146e-05
 Reference value :  2.80156e-05
 Reference value :  2.80166e-05
 Reference value :  2.80177e-05
 Reference value :  2.80190e-05
 Reference value :  2.80222e-05
 Reference value :  2.80274e-05
 Reference value :  2.80312e-05
 Reference value :  2.80528e-05
 Reference value :  2.81250e-05
 Reference value :  2.81717e-05
 Reference value :  2.82301e-05
 Reference value :  2.82919e-05
 Reference value :  2.83260e-05
 Reference value :  2.84157e-05
 Reference value :  2.85219e-05
 Reference value :  2.87104e-05
 Reference value :  2.90005e-05
 Reference value :  2.90006e-05
 Reference value :  2.90007e-05
 Reference value :  2.90010e-05
 Reference value :  2.90010e-05
 Reference value :  2.90011e-05
 Reference value :  2.90012e-05
 Reference value :  2.90014e-05
 Reference value :  2.90021e-05
 Reference value :  2.90026e-05
 Reference value :  2.90031e-05
 Reference value :  2.90038e-05
 Reference value :  2.90045e-05
 Reference value :  2.90050e-05
 Reference value :  2.90057e-05
 Reference value :  2.90063e-05
 Reference value :  2.90070e-05
 Reference value :  2.90079e-05
 Reference value :  2.90118e-05
 Reference value :  2.90212e-05
 Reference value :  2.90332e-05
 Reference value :  2.91030e-05
 Reference value :  2.93822e-05
 Reference value :  3.00001e-05
 Reference value :  3.00004e-05
 Reference value :  3.00005e-05
 Reference value :  3.00005e-05
 Reference value :  3.00007e-05
 Reference value :  3.00010e-05
 Reference value :  3.00015e-05
 Reference value :  3.00020e-05
 Reference value :  3.00025e-05
 Reference value :  3.00030e-05
 Reference value :  3.00035e-05
 Reference value :  3.00047e-05
 Reference value :  3.00062e-05
 Reference value :  3.00068e-05
 Reference value :  3.00086e-05
 Reference value :  3.00095e-05
 Reference value :  3.00115e-05
 Reference value :  3.00151e-05
 Reference value :  3.00192e-05
 Reference value :  3.00267e-05
 Reference value :  3.00687e-05
 Reference value :  3.02316e-05
 Reference value :  3.08833e-05
 Reference value :  3.10005e-05
 Reference value :  3.10005e-05
 Reference value :  3.10008e-05
 Reference value :  3.10010e-05
 Reference value :  3.10010e-05
 Reference value :  3.10011e-05
 Reference value :  3.10012e-05
 Reference value :  3.10014e-05
 Reference value :  3.10017e-05
 Reference value :  3.10021e-05
 Reference value :  3.10026e-05
 Reference value :  3.10038e-05
 Reference value :  3.10045e-05
 Reference value :  3.10050e-05
 Reference value :  3.10063e-05
 Reference value :  3.10071e-05
 Reference value :  3.10095e-05
 Reference value :  3.10152e-05
 Reference value :  3.10336e-05
 Reference value :  3.11019e-05
 Reference value :  3.13734e-05
 Reference value :  3.20000e-05
 Reference value :  3.20001e-05
 Reference value :  3.20005e-05
 Reference value :  3.20006e-05
 Reference value :  3.20010e-05
 Reference value :  3.20015e-05
 Reference value :  3.20020e-05
 Reference value :  3.20025e-05
 Reference value :  3.20030e-05
 Reference value :  3.20035e-05
 Reference value :  3.20046e-05
 Reference value :  3.20056e-05
 Reference value :  3.20069e-05
 Reference value :  3.20076e-05
 Reference value :  3.20083e-05
 Reference value :  3.20101e-05
 Reference value :  3.20132e-05
 Reference value :  3.20247e-05
 Reference value :  3.20695e-05
 Reference value :  3.24788e-05
 Reference value :  3.30005e-05
 Reference value :  3.30007e-05
 Reference value :  3.30009e-05
 Reference value :  3.30010e-05
 Reference value :  3.30012e-05
 Reference value :  3.30015e-05
 Reference value :  3.30017e-05
 Reference value :  3.30027e-05
 Reference value :  3.30039e-05
 Reference value :  3.30056e-05
 Reference value :  3.30075e-05
 Reference value :  3.30090e-05
 Reference value :  3.30134e-05
 Reference value :  3.30263e-05
 Reference value :  3.30779e-05
 Reference value :  3.32844e-05
 Reference value :  3.40000e-05
No. of Data Rows : 1250
ngspice-44 done
