
Note: Compatibility modes selected: hs a


Circuit: ** sch_path: /home/audrey/cace/sar-adc-using-sky130-pdk/runs/run_2025-09-07_19-09-14/parameters/sampling_rate/run_0/sampling_rate.sch

option SCALE: Scale is set to 1e-06 for instance and model parameters
option SCALE: Scale is set to 1e-06 for instance and model parameters
option SCALE: Scale is set to 1e-06 for instance and model parameters
option SCALE: Scale is set to 1e-06 for instance and model parameters
Doing analysis at TEMP = 27.000000 and TNOM = 27.000000

Using KLU as Direct Linear Solver
Operating point simulation skipped by 'uic',
  now using transient initial conditions.
 Reference value :  1.00000e-12
 Reference value :  1.02800e-12
 Reference value :  1.08400e-12
 Reference value :  1.19600e-12
 Reference value :  1.73376e-12
 Reference value :  2.36128e-12
 Reference value :  4.47005e-12
 Reference value :  6.36227e-12
 Reference value :  1.36081e-11
 Reference value :  2.00898e-11
 Reference value :  5.89800e-11
 Reference value :  1.00000e-10
 Reference value :  1.05185e-10
 Reference value :  1.15556e-10
 Reference value :  1.36297e-10
 Reference value :  1.77780e-10
 Reference value :  2.60746e-10
 Reference value :  4.26677e-10
 Reference value :  6.90309e-10
 Reference value :  9.87349e-10
 Reference value :  1.42264e-09
 Reference value :  1.93932e-09
 Reference value :  2.52929e-09
 Reference value :  3.32419e-09
 Reference value :  4.21805e-09
 Reference value :  5.19044e-09
 Reference value :  6.29107e-09
 Reference value :  7.02504e-09
 Reference value :  7.73737e-09
 Reference value :  8.42488e-09
 Reference value :  1.00977e-08
 Reference value :  1.13651e-08
 Reference value :  1.33573e-08
 Reference value :  1.57733e-08
 Reference value :  1.84831e-08
 Reference value :  2.10615e-08
 Reference value :  2.35374e-08
 Reference value :  2.60264e-08
 Reference value :  2.92129e-08
 Reference value :  3.42351e-08
 Reference value :  5.02948e-08
 Reference value :  1.13977e-07
 Reference value :  1.73148e-07
 Reference value :  2.50100e-07
 Reference value :  2.50110e-07
 Reference value :  2.50130e-07
 Reference value :  2.50200e-07
 Reference value :  2.50208e-07
 Reference value :  2.50253e-07
 Reference value :  2.50313e-07
 Reference value :  2.50405e-07
 Reference value :  2.50563e-07
 Reference value :  2.51016e-07
 Reference value :  2.51385e-07
 Reference value :  2.51833e-07
 Reference value :  2.52295e-07
 Reference value :  2.53634e-07
 Reference value :  2.54225e-07
 Reference value :  2.54839e-07
 Reference value :  2.55485e-07
 Reference value :  2.56213e-07
 Reference value :  2.57160e-07
 Reference value :  2.58706e-07
 Reference value :  2.60154e-07
 Reference value :  2.63050e-07
 Reference value :  2.73873e-07
 Reference value :  2.86006e-07
 Reference value :  3.46959e-07
 Reference value :  4.28228e-07
 Reference value :  5.00010e-07
 Reference value :  5.00030e-07
 Reference value :  5.00100e-07
 Reference value :  5.00108e-07
 Reference value :  5.00124e-07
 Reference value :  5.00220e-07
 Reference value :  5.00345e-07
 Reference value :  5.00518e-07
 Reference value :  5.00864e-07
 Reference value :  5.01310e-07
 Reference value :  5.01746e-07
 Reference value :  5.02221e-07
 Reference value :  5.02669e-07
 Reference value :  5.03217e-07
 Reference value :  5.03798e-07
 Reference value :  5.04427e-07
 Reference value :  5.06122e-07
 Reference value :  5.07297e-07
 Reference value :  5.08717e-07
 Reference value :  5.09877e-07
 Reference value :  5.11111e-07
 Reference value :  5.12562e-07
 Reference value :  5.14004e-07
 Reference value :  5.17408e-07
 Reference value :  5.19422e-07
 Reference value :  5.22976e-07
 Reference value :  5.28365e-07
 Reference value :  5.36549e-07
 Reference value :  5.85100e-07
 Reference value :  6.49835e-07
 Reference value :  7.50100e-07
 Reference value :  7.50110e-07
 Reference value :  7.50130e-07
 Reference value :  7.50170e-07
 Reference value :  7.50200e-07
 Reference value :  7.50208e-07
 Reference value :  7.50224e-07
 Reference value :  7.50256e-07
 Reference value :  7.50320e-07
 Reference value :  7.50448e-07
 Reference value :  7.50698e-07
 Reference value :  7.51020e-07
 Reference value :  7.52060e-07
 Reference value :  7.52584e-07
 Reference value :  7.53359e-07
 Reference value :  7.53869e-07
 Reference value :  7.54453e-07
 Reference value :  7.55026e-07
 Reference value :  7.55631e-07
 Reference value :  7.56459e-07
 Reference value :  7.57326e-07
 Reference value :  7.58279e-07
 Reference value :  7.59224e-07
 Reference value :  7.60576e-07
 Reference value :  7.62095e-07
 Reference value :  7.68560e-07
 Reference value :  7.90704e-07
 Reference value :  8.79282e-07
 Reference value :  9.97384e-07
 Reference value :  1.00000e-06
 Reference value :  1.00001e-06
 Reference value :  1.00003e-06
 Reference value :  1.00007e-06
 Reference value :  1.00010e-06
 Reference value :  1.00011e-06
 Reference value :  1.00012e-06
 Reference value :  1.00016e-06
 Reference value :  1.00022e-06
 Reference value :  1.00034e-06
 Reference value :  1.00052e-06
 Reference value :  1.00086e-06
 Reference value :  1.00131e-06
 Reference value :  1.00182e-06
 Reference value :  1.00231e-06
 Reference value :  1.00278e-06
 Reference value :  1.00334e-06
 Reference value :  1.00393e-06
 Reference value :  1.00457e-06
 Reference value :  1.00519e-06
 Reference value :  1.00576e-06
 Reference value :  1.00641e-06
 Reference value :  1.00726e-06
 Reference value :  1.00818e-06
 Reference value :  1.00935e-06
 Reference value :  1.01043e-06
 Reference value :  1.01147e-06
 Reference value :  1.01263e-06
 Reference value :  1.01351e-06
 Reference value :  1.01438e-06
 Reference value :  1.01536e-06
 Reference value :  1.01637e-06
 Reference value :  1.01737e-06
 Reference value :  1.01856e-06
 Reference value :  1.01980e-06
 Reference value :  1.02165e-06
 Reference value :  1.02378e-06
 Reference value :  1.02805e-06
 Reference value :  1.05033e-06
 Reference value :  1.07826e-06
 Reference value :  1.13412e-06
 Reference value :  1.19447e-06
 Reference value :  1.25010e-06
 Reference value :  1.25011e-06
 Reference value :  1.25013e-06
 Reference value :  1.25020e-06
 Reference value :  1.25021e-06
 Reference value :  1.25022e-06
 Reference value :  1.25026e-06
 Reference value :  1.25032e-06
 Reference value :  1.25045e-06
 Reference value :  1.25070e-06
 Reference value :  1.25102e-06
 Reference value :  1.25156e-06
 Reference value :  1.25206e-06
 Reference value :  1.25258e-06
 Reference value :  1.25335e-06
 Reference value :  1.25386e-06
 Reference value :  1.25444e-06
 Reference value :  1.25518e-06
 Reference value :  1.25589e-06
 Reference value :  1.25671e-06
 Reference value :  1.25832e-06
 Reference value :  1.26004e-06
 Reference value :  1.26303e-06
 Reference value :  1.27584e-06
 Reference value :  1.32711e-06
 Reference value :  1.50000e-06
 Reference value :  1.50001e-06
 Reference value :  1.50003e-06
 Reference value :  1.50007e-06
 Reference value :  1.50010e-06
 Reference value :  1.50012e-06
 Reference value :  1.50022e-06
 Reference value :  1.50034e-06
 Reference value :  1.50052e-06
 Reference value :  1.50086e-06
 Reference value :  1.50131e-06
 Reference value :  1.50175e-06
 Reference value :  1.50223e-06
 Reference value :  1.50268e-06
 Reference value :  1.50322e-06
 Reference value :  1.50379e-06
 Reference value :  1.50442e-06
 Reference value :  1.50521e-06
 Reference value :  1.50604e-06
 Reference value :  1.50673e-06
 Reference value :  1.50746e-06
 Reference value :  1.50839e-06
 Reference value :  1.50937e-06
 Reference value :  1.51031e-06
 Reference value :  1.51145e-06
 Reference value :  1.51272e-06
 Reference value :  1.51518e-06
 Reference value :  1.51872e-06
 Reference value :  1.52522e-06
 Reference value :  1.53666e-06
 Reference value :  1.59567e-06
 Reference value :  1.67434e-06
 Reference value :  1.75011e-06
 Reference value :  1.75013e-06
 Reference value :  1.75020e-06
 Reference value :  1.75021e-06
 Reference value :  1.75026e-06
 Reference value :  1.75045e-06
 Reference value :  1.75070e-06
 Reference value :  1.75156e-06
 Reference value :  1.75205e-06
 Reference value :  1.75258e-06
 Reference value :  1.75335e-06
 Reference value :  1.75386e-06
 Reference value :  1.75444e-06
 Reference value :  1.75501e-06
 Reference value :  1.75561e-06
 Reference value :  1.75646e-06
 Reference value :  1.75737e-06
 Reference value :  1.75829e-06
 Reference value :  1.75926e-06
 Reference value :  1.76065e-06
 Reference value :  1.76216e-06
 Reference value :  1.76499e-06
 Reference value :  1.77614e-06
 Reference value :  1.82073e-06
 Reference value :  1.99913e-06
 Reference value :  2.00000e-06
 Reference value :  2.00003e-06
 Reference value :  2.00010e-06
 Reference value :  2.00011e-06
 Reference value :  2.00016e-06
 Reference value :  2.00022e-06
 Reference value :  2.00052e-06
 Reference value :  2.00086e-06
 Reference value :  2.00131e-06
 Reference value :  2.00182e-06
 Reference value :  2.00231e-06
 Reference value :  2.00278e-06
 Reference value :  2.00334e-06
 Reference value :  2.00393e-06
 Reference value :  2.00457e-06
 Reference value :  2.00518e-06
 Reference value :  2.00575e-06
 Reference value :  2.00641e-06
 Reference value :  2.00726e-06
 Reference value :  2.00818e-06
 Reference value :  2.00935e-06
 Reference value :  2.01043e-06
 Reference value :  2.01147e-06
 Reference value :  2.01263e-06
 Reference value :  2.01351e-06
 Reference value :  2.01437e-06
 Reference value :  2.01536e-06
 Reference value :  2.01637e-06
 Reference value :  2.01737e-06
 Reference value :  2.01856e-06
 Reference value :  2.01979e-06
 Reference value :  2.02165e-06
 Reference value :  2.02802e-06
 Reference value :  2.03623e-06
 Reference value :  2.07482e-06
 Reference value :  2.16433e-06
 Reference value :  2.25010e-06
 Reference value :  2.25011e-06
 Reference value :  2.25013e-06
 Reference value :  2.25017e-06
 Reference value :  2.25021e-06
 Reference value :  2.25022e-06
 Reference value :  2.25026e-06
 Reference value :  2.25032e-06
 Reference value :  2.25070e-06
 Reference value :  2.25101e-06
 Reference value :  2.25151e-06
 Reference value :  2.25203e-06
 Reference value :  2.25252e-06
 Reference value :  2.25326e-06
 Reference value :  2.25378e-06
 Reference value :  2.25436e-06
 Reference value :  2.25496e-06
 Reference value :  2.25558e-06
 Reference value :  2.25642e-06
 Reference value :  2.25774e-06
 Reference value :  2.25924e-06
 Reference value :  2.26526e-06
 Reference value :  2.28536e-06
 Reference value :  2.31216e-06
 Reference value :  2.46483e-06
 Reference value :  2.50001e-06
 Reference value :  2.50007e-06
 Reference value :  2.50011e-06
 Reference value :  2.50016e-06
 Reference value :  2.50022e-06
 Reference value :  2.50052e-06
 Reference value :  2.50086e-06
 Reference value :  2.50131e-06
 Reference value :  2.50175e-06
 Reference value :  2.50223e-06
 Reference value :  2.50322e-06
 Reference value :  2.50379e-06
 Reference value :  2.50442e-06
 Reference value :  2.50521e-06
 Reference value :  2.50604e-06
 Reference value :  2.50673e-06
 Reference value :  2.50746e-06
 Reference value :  2.50840e-06
 Reference value :  2.50937e-06
 Reference value :  2.51032e-06
 Reference value :  2.51145e-06
 Reference value :  2.51517e-06
 Reference value :  2.51867e-06
 Reference value :  2.53629e-06
 Reference value :  2.59389e-06
 Reference value :  2.67069e-06
 Reference value :  2.75011e-06
 Reference value :  2.75017e-06
 Reference value :  2.75021e-06
 Reference value :  2.75026e-06
 Reference value :  2.75045e-06
 Reference value :  2.75070e-06
 Reference value :  2.75101e-06
 Reference value :  2.75150e-06
 Reference value :  2.75202e-06
 Reference value :  2.75252e-06
 Reference value :  2.75326e-06
 Reference value :  2.75378e-06
 Reference value :  2.75437e-06
 Reference value :  2.75490e-06
 Reference value :  2.75549e-06
 Reference value :  2.75627e-06
 Reference value :  2.75794e-06
 Reference value :  2.75894e-06
 Reference value :  2.76020e-06
 Reference value :  2.76410e-06
 Reference value :  2.76711e-06
 Reference value :  2.77313e-06
 Reference value :  2.79611e-06
 Reference value :  2.87022e-06
 Reference value :  3.00000e-06
 Reference value :  3.00003e-06
 Reference value :  3.00007e-06
 Reference value :  3.00010e-06
 Reference value :  3.00012e-06
 Reference value :  3.00016e-06
 Reference value :  3.00022e-06
 Reference value :  3.00052e-06
 Reference value :  3.00086e-06
 Reference value :  3.00131e-06
 Reference value :  3.00182e-06
 Reference value :  3.00231e-06
 Reference value :  3.00278e-06
 Reference value :  3.00334e-06
 Reference value :  3.00393e-06
 Reference value :  3.00457e-06
 Reference value :  3.00518e-06
 Reference value :  3.00575e-06
 Reference value :  3.00641e-06
 Reference value :  3.00725e-06
 Reference value :  3.00817e-06
 Reference value :  3.00935e-06
 Reference value :  3.01043e-06
 Reference value :  3.01146e-06
 Reference value :  3.01263e-06
 Reference value :  3.01351e-06
 Reference value :  3.01437e-06
 Reference value :  3.01535e-06
 Reference value :  3.01637e-06
 Reference value :  3.01737e-06
 Reference value :  3.01856e-06
 Reference value :  3.01979e-06
 Reference value :  3.02165e-06
 Reference value :  3.02376e-06
 Reference value :  3.02799e-06
 Reference value :  3.03610e-06
 Reference value :  3.04950e-06
 Reference value :  3.07429e-06
 Reference value :  3.11214e-06
 Reference value :  3.17591e-06
 Reference value :  3.20306e-06
 Reference value :  3.22953e-06
 Reference value :  3.25011e-06
 Reference value :  3.25013e-06
 Reference value :  3.25017e-06
 Reference value :  3.25020e-06
 Reference value :  3.25022e-06
 Reference value :  3.25026e-06
 Reference value :  3.25032e-06
 Reference value :  3.25045e-06
 Reference value :  3.25070e-06
 Reference value :  3.25101e-06
 Reference value :  3.25150e-06
 Reference value :  3.25202e-06
 Reference value :  3.25251e-06
 Reference value :  3.25326e-06
 Reference value :  3.25378e-06
 Reference value :  3.25436e-06
 Reference value :  3.25495e-06
 Reference value :  3.25557e-06
 Reference value :  3.25771e-06
 Reference value :  3.26186e-06
 Reference value :  3.26520e-06
 Reference value :  3.27188e-06
 Reference value :  3.28525e-06
 Reference value :  3.36546e-06
 Reference value :  3.50000e-06
 Reference value :  3.50003e-06
 Reference value :  3.50007e-06
 Reference value :  3.50010e-06
 Reference value :  3.50012e-06
 Reference value :  3.50016e-06
 Reference value :  3.50022e-06
 Reference value :  3.50034e-06
 Reference value :  3.50052e-06
 Reference value :  3.50086e-06
 Reference value :  3.50131e-06
 Reference value :  3.50175e-06
 Reference value :  3.50223e-06
 Reference value :  3.50268e-06
 Reference value :  3.50322e-06
 Reference value :  3.50379e-06
 Reference value :  3.50442e-06
 Reference value :  3.50521e-06
 Reference value :  3.50604e-06
 Reference value :  3.50673e-06
 Reference value :  3.50746e-06
 Reference value :  3.50839e-06
 Reference value :  3.50937e-06
 Reference value :  3.51032e-06
 Reference value :  3.51145e-06
 Reference value :  3.51272e-06
 Reference value :  3.51515e-06
 Reference value :  3.51863e-06
 Reference value :  3.53607e-06
 Reference value :  3.55502e-06
 Reference value :  3.66872e-06
 Reference value :  3.75010e-06
 Reference value :  3.75011e-06
 Reference value :  3.75013e-06
 Reference value :  3.75017e-06
 Reference value :  3.75020e-06
 Reference value :  3.75021e-06
 Reference value :  3.75026e-06
 Reference value :  3.75032e-06
 Reference value :  3.75045e-06
 Reference value :  3.75070e-06
 Reference value :  3.75101e-06
 Reference value :  3.75150e-06
 Reference value :  3.75202e-06
 Reference value :  3.75251e-06
 Reference value :  3.75326e-06
 Reference value :  3.75377e-06
 Reference value :  3.75437e-06
 Reference value :  3.75490e-06
 Reference value :  3.75548e-06
 Reference value :  3.75627e-06
 Reference value :  3.75712e-06
 Reference value :  3.75793e-06
 Reference value :  3.75893e-06
 Reference value :  3.76018e-06
 Reference value :  3.76166e-06
 Reference value :  3.76408e-06
 Reference value :  3.77309e-06
 Reference value :  3.79593e-06
 Reference value :  3.82013e-06
 Reference value :  3.96272e-06
 Reference value :  4.00000e-06
 Reference value :  4.00001e-06
 Reference value :  4.00003e-06
 Reference value :  4.00007e-06
 Reference value :  4.00010e-06
 Reference value :  4.00011e-06
 Reference value :  4.00012e-06
 Reference value :  4.00016e-06
 Reference value :  4.00022e-06
 Reference value :  4.00034e-06
 Reference value :  4.00052e-06
 Reference value :  4.00086e-06
 Reference value :  4.00131e-06
 Reference value :  4.00182e-06
 Reference value :  4.00231e-06
 Reference value :  4.00278e-06
 Reference value :  4.00334e-06
 Reference value :  4.00393e-06
 Reference value :  4.00457e-06
 Reference value :  4.00518e-06
 Reference value :  4.00575e-06
 Reference value :  4.00641e-06
 Reference value :  4.00725e-06
 Reference value :  4.00817e-06
 Reference value :  4.00935e-06
 Reference value :  4.01043e-06
 Reference value :  4.01146e-06
 Reference value :  4.01263e-06
 Reference value :  4.01350e-06
 Reference value :  4.01436e-06
 Reference value :  4.01535e-06
 Reference value :  4.01637e-06
 Reference value :  4.01736e-06
 Reference value :  4.01855e-06
 Reference value :  4.01977e-06
 Reference value :  4.02163e-06
 Reference value :  4.02372e-06
 Reference value :  4.02791e-06
 Reference value :  4.03584e-06
 Reference value :  4.04878e-06
 Reference value :  4.07021e-06
 Reference value :  4.09551e-06
 Reference value :  4.10642e-06
 Reference value :  4.12072e-06
 Reference value :  4.13750e-06
 Reference value :  4.21167e-06
 Reference value :  4.25011e-06
 Reference value :  4.25013e-06
 Reference value :  4.25017e-06
 Reference value :  4.25020e-06
 Reference value :  4.25021e-06
 Reference value :  4.25022e-06
 Reference value :  4.25026e-06
 Reference value :  4.25032e-06
 Reference value :  4.25045e-06
 Reference value :  4.25070e-06
 Reference value :  4.25101e-06
 Reference value :  4.25150e-06
 Reference value :  4.25202e-06
 Reference value :  4.25251e-06
 Reference value :  4.25325e-06
 Reference value :  4.25377e-06
 Reference value :  4.25436e-06
 Reference value :  4.25495e-06
 Reference value :  4.25641e-06
 Reference value :  4.25769e-06
 Reference value :  4.25920e-06
 Reference value :  4.26183e-06
 Reference value :  4.27184e-06
 Reference value :  4.28519e-06
 Reference value :  4.31190e-06
 Reference value :  4.36531e-06
 Reference value :  4.47214e-06
 Reference value :  4.50000e-06
 Reference value :  4.50001e-06
 Reference value :  4.50003e-06
 Reference value :  4.50007e-06
 Reference value :  4.50010e-06
 Reference value :  4.50011e-06
 Reference value :  4.50012e-06
 Reference value :  4.50016e-06
 Reference value :  4.50022e-06
 Reference value :  4.50034e-06
 Reference value :  4.50052e-06
 Reference value :  4.50086e-06
 Reference value :  4.50131e-06
 Reference value :  4.50175e-06
 Reference value :  4.50223e-06
 Reference value :  4.50268e-06
 Reference value :  4.50322e-06
 Reference value :  4.50379e-06
 Reference value :  4.50442e-06
 Reference value :  4.50521e-06
 Reference value :  4.50604e-06
 Reference value :  4.50673e-06
 Reference value :  4.50746e-06
 Reference value :  4.50839e-06
 Reference value :  4.50937e-06
 Reference value :  4.51032e-06
 Reference value :  4.51145e-06
 Reference value :  4.51271e-06
 Reference value :  4.51861e-06
 Reference value :  4.53592e-06
 Reference value :  4.55469e-06
 Reference value :  4.59222e-06
 Reference value :  4.66728e-06
 Reference value :  4.75010e-06
 Reference value :  4.75011e-06
 Reference value :  4.75013e-06
 Reference value :  4.75017e-06
 Reference value :  4.75020e-06
 Reference value :  4.75021e-06
 Reference value :  4.75026e-06
 Reference value :  4.75032e-06
 Reference value :  4.75045e-06
 Reference value :  4.75070e-06
 Reference value :  4.75101e-06
 Reference value :  4.75150e-06
 Reference value :  4.75202e-06
 Reference value :  4.75251e-06
 Reference value :  4.75325e-06
 Reference value :  4.75377e-06
 Reference value :  4.75437e-06
 Reference value :  4.75490e-06
 Reference value :  4.75548e-06
 Reference value :  4.75627e-06
 Reference value :  4.75711e-06
 Reference value :  4.75793e-06
 Reference value :  4.76017e-06
 Reference value :  4.76406e-06
 Reference value :  4.76707e-06
 Reference value :  4.77307e-06
 Reference value :  4.78148e-06
 Reference value :  4.79582e-06
 Reference value :  4.81970e-06
 Reference value :  4.86746e-06
 Reference value :  4.96064e-06
 Reference value :  5.00000e-06
 Reference value :  5.00001e-06
 Reference value :  5.00003e-06
 Reference value :  5.00007e-06
 Reference value :  5.00010e-06
 Reference value :  5.00011e-06
 Reference value :  5.00016e-06
 Reference value :  5.00022e-06
 Reference value :  5.00034e-06
 Reference value :  5.00052e-06
 Reference value :  5.00086e-06
 Reference value :  5.00131e-06
 Reference value :  5.00182e-06
 Reference value :  5.00231e-06
 Reference value :  5.00278e-06
 Reference value :  5.00334e-06
 Reference value :  5.00393e-06
 Reference value :  5.00457e-06
 Reference value :  5.00518e-06
 Reference value :  5.00575e-06
 Reference value :  5.00641e-06
 Reference value :  5.00725e-06
 Reference value :  5.00817e-06
 Reference value :  5.00935e-06
 Reference value :  5.01043e-06
 Reference value :  5.01146e-06
 Reference value :  5.01263e-06
 Reference value :  5.01350e-06
 Reference value :  5.01435e-06
 Reference value :  5.01545e-06
 Reference value :  5.01644e-06
 Reference value :  5.01752e-06
 Reference value :  5.01874e-06
 Reference value :  5.02004e-06
 Reference value :  5.02449e-06
 Reference value :  5.02956e-06
 Reference value :  5.03901e-06
 Reference value :  5.05687e-06
 Reference value :  5.06401e-06
 Reference value :  5.07226e-06
 Reference value :  5.08721e-06
 Reference value :  5.10253e-06
 Reference value :  5.14274e-06
 Reference value :  5.16573e-06
 Reference value :  5.21170e-06
 Reference value :  5.25011e-06
 Reference value :  5.25013e-06
 Reference value :  5.25017e-06
 Reference value :  5.25020e-06
 Reference value :  5.25021e-06
 Reference value :  5.25026e-06
 Reference value :  5.25032e-06
 Reference value :  5.25045e-06
 Reference value :  5.25070e-06
 Reference value :  5.25101e-06
 Reference value :  5.25150e-06
 Reference value :  5.25202e-06
 Reference value :  5.25251e-06
 Reference value :  5.25325e-06
 Reference value :  5.25377e-06
 Reference value :  5.25436e-06
 Reference value :  5.25494e-06
 Reference value :  5.25557e-06
 Reference value :  5.25641e-06
 Reference value :  5.25768e-06
 Reference value :  5.25919e-06
 Reference value :  5.26180e-06
 Reference value :  5.26514e-06
 Reference value :  5.28515e-06
 Reference value :  5.31184e-06
 Reference value :  5.47194e-06
 Reference value :  5.50000e-06
 Reference value :  5.50001e-06
 Reference value :  5.50003e-06
 Reference value :  5.50007e-06
 Reference value :  5.50010e-06
 Reference value :  5.50011e-06
 Reference value :  5.50012e-06
 Reference value :  5.50016e-06
 Reference value :  5.50022e-06
 Reference value :  5.50034e-06
 Reference value :  5.50052e-06
 Reference value :  5.50086e-06
 Reference value :  5.50131e-06
 Reference value :  5.50175e-06
 Reference value :  5.50223e-06
 Reference value :  5.50268e-06
 Reference value :  5.50322e-06
 Reference value :  5.50379e-06
 Reference value :  5.50442e-06
 Reference value :  5.50521e-06
 Reference value :  5.50604e-06
 Reference value :  5.50673e-06
 Reference value :  5.50746e-06
 Reference value :  5.50840e-06
 Reference value :  5.50937e-06
 Reference value :  5.51032e-06
 Reference value :  5.51146e-06
 Reference value :  5.51514e-06
 Reference value :  5.52485e-06
 Reference value :  5.53577e-06
 Reference value :  5.55435e-06
 Reference value :  5.59150e-06
 Reference value :  5.66581e-06
 Reference value :  5.75010e-06
 Reference value :  5.75011e-06
 Reference value :  5.75017e-06
 Reference value :  5.75020e-06
 Reference value :  5.75021e-06
 Reference value :  5.75022e-06
 Reference value :  5.75026e-06
 Reference value :  5.75032e-06
 Reference value :  5.75045e-06
 Reference value :  5.75070e-06
 Reference value :  5.75101e-06
 Reference value :  5.75150e-06
 Reference value :  5.75202e-06
 Reference value :  5.75251e-06
 Reference value :  5.75325e-06
 Reference value :  5.75377e-06
 Reference value :  5.75436e-06
 Reference value :  5.75490e-06
 Reference value :  5.75548e-06
 Reference value :  5.75626e-06
 Reference value :  5.75711e-06
 Reference value :  5.75792e-06
 Reference value :  5.75893e-06
 Reference value :  5.76017e-06
 Reference value :  5.76165e-06
 Reference value :  5.76406e-06
 Reference value :  5.76706e-06
 Reference value :  5.77306e-06
 Reference value :  5.79580e-06
 Reference value :  5.81953e-06
 Reference value :  5.86698e-06
 Reference value :  6.00000e-06
 Reference value :  6.00003e-06
 Reference value :  6.00007e-06
 Reference value :  6.00010e-06
 Reference value :  6.00011e-06
 Reference value :  6.00012e-06
 Reference value :  6.00016e-06
 Reference value :  6.00034e-06
 Reference value :  6.00052e-06
 Reference value :  6.00086e-06
 Reference value :  6.00131e-06
 Reference value :  6.00182e-06
 Reference value :  6.00231e-06
 Reference value :  6.00278e-06
 Reference value :  6.00334e-06
 Reference value :  6.00393e-06
 Reference value :  6.00457e-06
 Reference value :  6.00518e-06
 Reference value :  6.00575e-06
 Reference value :  6.00641e-06
 Reference value :  6.00725e-06
 Reference value :  6.00817e-06
 Reference value :  6.00934e-06
 Reference value :  6.01043e-06
 Reference value :  6.01146e-06
 Reference value :  6.01263e-06
 Reference value :  6.01349e-06
 Reference value :  6.01434e-06
 Reference value :  6.01543e-06
 Reference value :  6.01644e-06
 Reference value :  6.01750e-06
 Reference value :  6.01872e-06
 Reference value :  6.02001e-06
 Reference value :  6.02192e-06
 Reference value :  6.02438e-06
 Reference value :  6.02930e-06
 Reference value :  6.03244e-06
 Reference value :  6.03611e-06
 Reference value :  6.04018e-06
 Reference value :  6.04684e-06
 Reference value :  6.05541e-06
 Reference value :  6.07081e-06
 Reference value :  6.09671e-06
 Reference value :  6.14702e-06
 Reference value :  6.20398e-06
 Reference value :  6.25010e-06
 Reference value :  6.25011e-06
 Reference value :  6.25013e-06
 Reference value :  6.25017e-06
 Reference value :  6.25020e-06
 Reference value :  6.25021e-06
 Reference value :  6.25026e-06
 Reference value :  6.25032e-06
 Reference value :  6.25045e-06
 Reference value :  6.25070e-06
 Reference value :  6.25101e-06
 Reference value :  6.25150e-06
 Reference value :  6.25202e-06
 Reference value :  6.25251e-06
 Reference value :  6.25325e-06
 Reference value :  6.25377e-06
 Reference value :  6.25436e-06
 Reference value :  6.25494e-06
 Reference value :  6.25556e-06
 Reference value :  6.25768e-06
 Reference value :  6.26179e-06
 Reference value :  6.27180e-06
 Reference value :  6.31181e-06
 Reference value :  6.47187e-06
 Reference value :  6.50001e-06
 Reference value :  6.50007e-06
 Reference value :  6.50011e-06
 Reference value :  6.50016e-06
 Reference value :  6.50034e-06
 Reference value :  6.50086e-06
 Reference value :  6.50131e-06
 Reference value :  6.50175e-06
 Reference value :  6.50223e-06
 Reference value :  6.50322e-06
 Reference value :  6.50379e-06
 Reference value :  6.50442e-06
 Reference value :  6.50521e-06
 Reference value :  6.50604e-06
 Reference value :  6.50673e-06
 Reference value :  6.50746e-06
 Reference value :  6.50840e-06
 Reference value :  6.50937e-06
 Reference value :  6.51032e-06
 Reference value :  6.51145e-06
 Reference value :  6.51513e-06
 Reference value :  6.51857e-06
 Reference value :  6.53569e-06
 Reference value :  6.59113e-06
 Reference value :  6.75010e-06
 Reference value :  6.75011e-06
 Reference value :  6.75013e-06
 Reference value :  6.75020e-06
 Reference value :  6.75022e-06
 Reference value :  6.75032e-06
 Reference value :  6.75070e-06
 Reference value :  6.75150e-06
 Reference value :  6.75202e-06
 Reference value :  6.75325e-06
 Reference value :  6.75377e-06
 Reference value :  6.75436e-06
 Reference value :  6.75490e-06
 Reference value :  6.75626e-06
 Reference value :  6.75711e-06
 Reference value :  6.75792e-06
 Reference value :  6.76016e-06
 Reference value :  6.76165e-06
 Reference value :  6.76705e-06
 Reference value :  6.77305e-06
 Reference value :  6.79574e-06
 Reference value :  6.86642e-06
 Reference value :  7.00000e-06
 Reference value :  7.00003e-06
 Reference value :  7.00007e-06
 Reference value :  7.00010e-06
 Reference value :  7.00011e-06
 Reference value :  7.00012e-06
 Reference value :  7.00022e-06
 Reference value :  7.00034e-06
 Reference value :  7.00052e-06
 Reference value :  7.00086e-06
 Reference value :  7.00131e-06
 Reference value :  7.00182e-06
 Reference value :  7.00231e-06
 Reference value :  7.00278e-06
 Reference value :  7.00334e-06
 Reference value :  7.00393e-06
 Reference value :  7.00457e-06
 Reference value :  7.00518e-06
 Reference value :  7.00575e-06
 Reference value :  7.00641e-06
 Reference value :  7.00725e-06
 Reference value :  7.00817e-06
 Reference value :  7.00934e-06
 Reference value :  7.01042e-06
 Reference value :  7.01146e-06
 Reference value :  7.01262e-06
 Reference value :  7.01349e-06
 Reference value :  7.01433e-06
 Reference value :  7.01542e-06
 Reference value :  7.01643e-06
 Reference value :  7.01749e-06
 Reference value :  7.01871e-06
 Reference value :  7.02190e-06
 Reference value :  7.02668e-06
 Reference value :  7.03014e-06
 Reference value :  7.03640e-06
 Reference value :  7.04836e-06
 Reference value :  7.07229e-06
 Reference value :  7.12014e-06
 Reference value :  7.25010e-06
 Reference value :  7.25011e-06
 Reference value :  7.25013e-06
 Reference value :  7.25017e-06
 Reference value :  7.25021e-06
 Reference value :  7.25026e-06
 Reference value :  7.25045e-06
 Reference value :  7.25070e-06
 Reference value :  7.25150e-06
 Reference value :  7.25251e-06
 Reference value :  7.25325e-06
 Reference value :  7.25377e-06
 Reference value :  7.25436e-06
 Reference value :  7.25494e-06
 Reference value :  7.25640e-06
 Reference value :  7.25767e-06
 Reference value :  7.25918e-06
 Reference value :  7.26511e-06
 Reference value :  7.28510e-06
 Reference value :  7.36507e-06
 Reference value :  7.50000e-06
 Reference value :  7.50003e-06
 Reference value :  7.50007e-06
 Reference value :  7.50010e-06
 Reference value :  7.50011e-06
 Reference value :  7.50012e-06
 Reference value :  7.50016e-06
 Reference value :  7.50022e-06
 Reference value :  7.50034e-06
 Reference value :  7.50052e-06
 Reference value :  7.50086e-06
 Reference value :  7.50131e-06
 Reference value :  7.50175e-06
 Reference value :  7.50223e-06
 Reference value :  7.50268e-06
 Reference value :  7.50322e-06
 Reference value :  7.50379e-06
 Reference value :  7.50442e-06
 Reference value :  7.50521e-06
 Reference value :  7.50604e-06
 Reference value :  7.50673e-06
 Reference value :  7.50746e-06
 Reference value :  7.50840e-06
 Reference value :  7.50937e-06
 Reference value :  7.51032e-06
 Reference value :  7.51145e-06
 Reference value :  7.51512e-06
 Reference value :  7.52478e-06
 Reference value :  7.55401e-06
 Reference value :  7.66442e-06
 Reference value :  7.75011e-06
 Reference value :  7.75013e-06
 Reference value :  7.75017e-06
 Reference value :  7.75020e-06
 Reference value :  7.75022e-06
 Reference value :  7.75032e-06
 Reference value :  7.75045e-06
 Reference value :  7.75070e-06
 Reference value :  7.75101e-06
 Reference value :  7.75150e-06
 Reference value :  7.75202e-06
 Reference value :  7.75251e-06
 Reference value :  7.75325e-06
 Reference value :  7.75377e-06
 Reference value :  7.75436e-06
 Reference value :  7.75489e-06
 Reference value :  7.75548e-06
 Reference value :  7.75626e-06
 Reference value :  7.75711e-06
 Reference value :  7.75792e-06
 Reference value :  7.75892e-06
 Reference value :  7.76016e-06
 Reference value :  7.76164e-06
 Reference value :  7.76404e-06
 Reference value :  7.76704e-06
 Reference value :  7.77303e-06
 Reference value :  7.78138e-06
 Reference value :  7.79565e-06
 Reference value :  7.81901e-06
 Reference value :  7.86557e-06
 Reference value :  7.95720e-06
 Reference value :  8.00000e-06
 Reference value :  8.00001e-06
 Reference value :  8.00003e-06
 Reference value :  8.00007e-06
 Reference value :  8.00010e-06
 Reference value :  8.00011e-06
 Reference value :  8.00012e-06
 Reference value :  8.00016e-06
 Reference value :  8.00022e-06
 Reference value :  8.00034e-06
 Reference value :  8.00086e-06
 Reference value :  8.00131e-06
 Reference value :  8.00182e-06
 Reference value :  8.00231e-06
 Reference value :  8.00278e-06
 Reference value :  8.00334e-06
 Reference value :  8.00393e-06
 Reference value :  8.00457e-06
 Reference value :  8.00518e-06
 Reference value :  8.00575e-06
 Reference value :  8.00641e-06
 Reference value :  8.00725e-06
 Reference value :  8.00806e-06
 Reference value :  8.00890e-06
 Reference value :  8.00962e-06
 Reference value :  8.01041e-06
 Reference value :  8.01153e-06
 Reference value :  8.01268e-06
 Reference value :  8.01499e-06
 Reference value :  8.01575e-06
 Reference value :  8.01672e-06
 Reference value :  8.02017e-06
 Reference value :  8.02475e-06
 Reference value :  8.03205e-06
 Reference value :  8.04283e-06
 Reference value :  8.06167e-06
 Reference value :  8.09390e-06
 Reference value :  8.23950e-06
 Reference value :  8.25011e-06
 Reference value :  8.25013e-06
 Reference value :  8.25017e-06
 Reference value :  8.25020e-06
 Reference value :  8.25022e-06
 Reference value :  8.25026e-06
 Reference value :  8.25045e-06
 Reference value :  8.25070e-06
 Reference value :  8.25101e-06
 Reference value :  8.25150e-06
 Reference value :  8.25251e-06
 Reference value :  8.25324e-06
 Reference value :  8.25400e-06
 Reference value :  8.25501e-06
 Reference value :  8.25602e-06
 Reference value :  8.25696e-06
 Reference value :  8.25853e-06
 Reference value :  8.26020e-06
 Reference value :  8.26794e-06
 Reference value :  8.29652e-06
 Reference value :  8.41083e-06
 Reference value :  8.50001e-06
 Reference value :  8.50003e-06
 Reference value :  8.50010e-06
 Reference value :  8.50011e-06
 Reference value :  8.50016e-06
 Reference value :  8.50035e-06
 Reference value :  8.50060e-06
 Reference value :  8.50094e-06
 Reference value :  8.50143e-06
 Reference value :  8.50195e-06
 Reference value :  8.50244e-06
 Reference value :  8.50297e-06
 Reference value :  8.50357e-06
 Reference value :  8.50424e-06
 Reference value :  8.50489e-06
 Reference value :  8.50563e-06
 Reference value :  8.50631e-06
 Reference value :  8.50714e-06
 Reference value :  8.50849e-06
 Reference value :  8.51027e-06
 Reference value :  8.51378e-06
 Reference value :  8.51988e-06
 Reference value :  8.52623e-06
 Reference value :  8.53062e-06
 Reference value :  8.53430e-06
 Reference value :  8.53750e-06
 Reference value :  8.54290e-06
 Reference value :  8.54879e-06
 Reference value :  8.55362e-06
 Reference value :  8.56950e-06
 Reference value :  8.60401e-06
 Reference value :  8.63523e-06
 Reference value :  8.68234e-06
 Reference value :  8.75010e-06
 Reference value :  8.75011e-06
 Reference value :  8.75013e-06
 Reference value :  8.75017e-06
 Reference value :  8.75020e-06
 Reference value :  8.75021e-06
 Reference value :  8.75022e-06
 Reference value :  8.75026e-06
 Reference value :  8.75032e-06
 Reference value :  8.75045e-06
 Reference value :  8.75070e-06
 Reference value :  8.75101e-06
 Reference value :  8.75150e-06
 Reference value :  8.75202e-06
 Reference value :  8.75251e-06
 Reference value :  8.75323e-06
 Reference value :  8.75374e-06
 Reference value :  8.75431e-06
 Reference value :  8.75490e-06
 Reference value :  8.75552e-06
 Reference value :  8.75633e-06
 Reference value :  8.75766e-06
 Reference value :  8.75909e-06
 Reference value :  8.76172e-06
 Reference value :  8.76487e-06
 Reference value :  8.77116e-06
 Reference value :  8.78375e-06
 Reference value :  8.80892e-06
 Reference value :  8.85927e-06
 Reference value :  8.95996e-06
 Reference value :  9.00000e-06
No. of Data Rows : 1301
ngspice-44 done
