
Note: Compatibility modes selected: hs a


Circuit: ** sch_path: /home/audrey/cace/sar-adc-using-sky130-pdk/runs/run_2025-08-29_17-09-40/parameters/power/run_10/power_consumption.sch

option SCALE: Scale is set to 1e-06 for instance and model parameters
option SCALE: Scale is set to 1e-06 for instance and model parameters
option SCALE: Scale is set to 1e-06 for instance and model parameters
option SCALE: Scale is set to 1e-06 for instance and model parameters
Doing analysis at TEMP = 27.000000 and TNOM = 27.000000

Using KLU as Direct Linear Solver
Operating point simulation skipped by 'uic',
  now using transient initial conditions.
 Reference value :  5.00000e-12
 Reference value :  5.14000e-12
 Reference value :  5.42000e-12
 Reference value :  5.98000e-12
 Reference value :  8.70112e-12
 Reference value :  1.62480e-11
 Reference value :  3.59512e-11
 Reference value :  1.14764e-10
 Reference value :  3.64826e-10
 Reference value :  5.15353e-10
 Reference value :  5.46058e-10
 Reference value :  7.30289e-10
 Reference value :  9.75930e-10
 Reference value :  1.27438e-09
 Reference value :  1.63603e-09
 Reference value :  2.16663e-09
 Reference value :  2.71289e-09
 Reference value :  3.51502e-09
 Reference value :  4.40836e-09
 Reference value :  5.48583e-09
 Reference value :  7.66718e-09
 Reference value :  9.42558e-09
 Reference value :  1.13137e-08
 Reference value :  1.23324e-08
 Reference value :  1.31631e-08
 Reference value :  1.47939e-08
 Reference value :  1.72129e-08
 Reference value :  2.01040e-08
 Reference value :  2.69912e-08
 Reference value :  3.48835e-08
 Reference value :  5.30474e-08
 Reference value :  8.17318e-08
 Reference value :  1.79212e-07
 Reference value :  2.92058e-07
 Reference value :  5.22569e-07
 Reference value :  6.57984e-07
 Reference value :  9.39867e-07
 Reference value :  1.00055e-06
 Reference value :  1.00085e-06
 Reference value :  1.00100e-06
 Reference value :  1.00121e-06
 Reference value :  1.00158e-06
 Reference value :  1.00241e-06
 Reference value :  1.00342e-06
 Reference value :  1.00419e-06
 Reference value :  1.00473e-06
 Reference value :  1.00535e-06
 Reference value :  1.00601e-06
 Reference value :  1.00764e-06
 Reference value :  1.01047e-06
 Reference value :  1.02357e-06
 Reference value :  1.05514e-06
 Reference value :  1.08210e-06
 Reference value :  1.12108e-06
 Reference value :  1.14494e-06
 Reference value :  1.20609e-06
 Reference value :  1.25822e-06
 Reference value :  1.36410e-06
 Reference value :  1.68254e-06
 Reference value :  2.00005e-06
 Reference value :  2.00035e-06
 Reference value :  2.00060e-06
 Reference value :  2.00102e-06
 Reference value :  2.00139e-06
 Reference value :  2.00217e-06
 Reference value :  2.00312e-06
 Reference value :  2.00443e-06
 Reference value :  2.00725e-06
 Reference value :  2.00995e-06
 Reference value :  2.01272e-06
 Reference value :  2.01598e-06
 Reference value :  2.02363e-06
 Reference value :  2.05355e-06
 Reference value :  2.51417e-06
 Reference value :  3.00065e-06
 Reference value :  3.00100e-06
 Reference value :  3.00103e-06
 Reference value :  3.00124e-06
 Reference value :  3.00178e-06
 Reference value :  3.00265e-06
 Reference value :  3.00378e-06
 Reference value :  3.00430e-06
 Reference value :  3.00492e-06
 Reference value :  3.00548e-06
 Reference value :  3.00685e-06
 Reference value :  3.01060e-06
 Reference value :  3.01738e-06
 Reference value :  3.04301e-06
 Reference value :  3.15262e-06
 Reference value :  4.00000e-06
 Reference value :  4.00005e-06
 Reference value :  4.00050e-06
 Reference value :  4.00102e-06
 Reference value :  4.00139e-06
 Reference value :  4.00221e-06
 Reference value :  4.00321e-06
 Reference value :  4.00429e-06
 Reference value :  4.00544e-06
 Reference value :  4.00678e-06
 Reference value :  4.00969e-06
 Reference value :  4.01185e-06
 Reference value :  4.01384e-06
 Reference value :  4.01563e-06
 Reference value :  4.01878e-06
 Reference value :  4.02093e-06
 Reference value :  4.02474e-06
 Reference value :  4.04160e-06
 Reference value :  4.06244e-06
 Reference value :  4.15509e-06
 Reference value :  4.44671e-06
 Reference value :  4.98336e-06
 Reference value :  5.00065e-06
 Reference value :  5.00103e-06
 Reference value :  5.00151e-06
 Reference value :  5.00219e-06
 Reference value :  5.00381e-06
 Reference value :  5.00434e-06
 Reference value :  5.00555e-06
 Reference value :  5.00710e-06
 Reference value :  5.01199e-06
 Reference value :  5.06436e-06
 Reference value :  5.90239e-06
 Reference value :  6.00015e-06
 Reference value :  6.00053e-06
 Reference value :  6.00102e-06
 Reference value :  6.00139e-06
 Reference value :  6.00221e-06
 Reference value :  6.00375e-06
 Reference value :  6.00501e-06
 Reference value :  6.00682e-06
 Reference value :  6.00874e-06
 Reference value :  6.01460e-06
 Reference value :  6.05920e-06
 Reference value :  6.65958e-06
 Reference value :  7.00085e-06
 Reference value :  7.00110e-06
 Reference value :  7.00178e-06
 Reference value :  7.00265e-06
 Reference value :  7.00380e-06
 Reference value :  7.00493e-06
 Reference value :  7.00682e-06
 Reference value :  7.01434e-06
 Reference value :  7.17184e-06
 Reference value :  8.00005e-06
 Reference value :  8.00050e-06
 Reference value :  8.00060e-06
 Reference value :  8.00102e-06
 Reference value :  8.00139e-06
 Reference value :  8.00221e-06
 Reference value :  8.00321e-06
 Reference value :  8.00428e-06
 Reference value :  8.00540e-06
 Reference value :  8.00601e-06
 Reference value :  8.00744e-06
 Reference value :  8.01003e-06
 Reference value :  8.01162e-06
 Reference value :  8.01294e-06
 Reference value :  8.01507e-06
 Reference value :  8.01721e-06
 Reference value :  8.01946e-06
 Reference value :  8.02569e-06
 Reference value :  8.03866e-06
 Reference value :  8.07718e-06
 Reference value :  8.16921e-06
 Reference value :  8.43568e-06
 Reference value :  9.00065e-06
 Reference value :  9.00100e-06
 Reference value :  9.00110e-06
 Reference value :  9.00151e-06
 Reference value :  9.00219e-06
 Reference value :  9.00314e-06
 Reference value :  9.00434e-06
 Reference value :  9.00554e-06
 Reference value :  9.00709e-06
 Reference value :  9.00971e-06
 Reference value :  9.02243e-06
 Reference value :  9.06422e-06
 Reference value :  9.23141e-06
 Reference value :  1.00000e-05
 Reference value :  1.00001e-05
 Reference value :  1.00005e-05
 Reference value :  1.00007e-05
 Reference value :  1.00014e-05
 Reference value :  1.00022e-05
 Reference value :  1.00032e-05
 Reference value :  1.00044e-05
 Reference value :  1.00050e-05
 Reference value :  1.00060e-05
 Reference value :  1.00068e-05
 Reference value :  1.00087e-05
 Reference value :  1.00098e-05
 Reference value :  1.00123e-05
 Reference value :  1.00248e-05
 Reference value :  1.00594e-05
 Reference value :  1.03419e-05
 Reference value :  1.10005e-05
 Reference value :  1.10008e-05
 Reference value :  1.10010e-05
 Reference value :  1.10011e-05
 Reference value :  1.10015e-05
 Reference value :  1.10022e-05
 Reference value :  1.10031e-05
 Reference value :  1.10043e-05
 Reference value :  1.10055e-05
 Reference value :  1.10068e-05
 Reference value :  1.10112e-05
 Reference value :  1.10296e-05
 Reference value :  1.11716e-05
 Reference value :  1.20000e-05
 Reference value :  1.20003e-05
 Reference value :  1.20005e-05
 Reference value :  1.20010e-05
 Reference value :  1.20014e-05
 Reference value :  1.20018e-05
 Reference value :  1.20022e-05
 Reference value :  1.20027e-05
 Reference value :  1.20038e-05
 Reference value :  1.20043e-05
 Reference value :  1.20054e-05
 Reference value :  1.20066e-05
 Reference value :  1.20100e-05
 Reference value :  1.20129e-05
 Reference value :  1.20151e-05
 Reference value :  1.20162e-05
 Reference value :  1.20183e-05
 Reference value :  1.20228e-05
 Reference value :  1.20386e-05
 Reference value :  1.21742e-05
 Reference value :  1.26171e-05
 Reference value :  1.30007e-05
 Reference value :  1.30010e-05
 Reference value :  1.30012e-05
 Reference value :  1.30018e-05
 Reference value :  1.30022e-05
 Reference value :  1.30031e-05
 Reference value :  1.30043e-05
 Reference value :  1.30050e-05
 Reference value :  1.30055e-05
 Reference value :  1.30071e-05
 Reference value :  1.30081e-05
 Reference value :  1.30120e-05
 Reference value :  1.30224e-05
 Reference value :  1.31194e-05
 Reference value :  1.40000e-05
 Reference value :  1.40005e-05
 Reference value :  1.40006e-05
 Reference value :  1.40010e-05
 Reference value :  1.40014e-05
 Reference value :  1.40022e-05
 Reference value :  1.40032e-05
 Reference value :  1.40044e-05
 Reference value :  1.40060e-05
 Reference value :  1.40068e-05
 Reference value :  1.40087e-05
 Reference value :  1.40109e-05
 Reference value :  1.40182e-05
 Reference value :  1.40592e-05
 Reference value :  1.43397e-05
 Reference value :  1.50005e-05
 Reference value :  1.50010e-05
 Reference value :  1.50011e-05
 Reference value :  1.50015e-05
 Reference value :  1.50022e-05
 Reference value :  1.50027e-05
 Reference value :  1.50038e-05
 Reference value :  1.50043e-05
 Reference value :  1.50055e-05
 Reference value :  1.50068e-05
 Reference value :  1.50112e-05
 Reference value :  1.50295e-05
 Reference value :  1.51715e-05
 Reference value :  1.60000e-05
 Reference value :  1.60005e-05
 Reference value :  1.60007e-05
 Reference value :  1.60014e-05
 Reference value :  1.60022e-05
 Reference value :  1.60032e-05
 Reference value :  1.60043e-05
 Reference value :  1.60048e-05
 Reference value :  1.60054e-05
 Reference value :  1.60060e-05
 Reference value :  1.60074e-05
 Reference value :  1.60084e-05
 Reference value :  1.60116e-05
 Reference value :  1.60133e-05
 Reference value :  1.60145e-05
 Reference value :  1.60168e-05
 Reference value :  1.60193e-05
 Reference value :  1.60251e-05
 Reference value :  1.60366e-05
 Reference value :  1.60663e-05
 Reference value :  1.61000e-05
 Reference value :  1.61379e-05
 Reference value :  1.61938e-05
 Reference value :  1.64288e-05
 Reference value :  1.70006e-05
 Reference value :  1.70009e-05
 Reference value :  1.70010e-05
 Reference value :  1.70012e-05
 Reference value :  1.70017e-05
 Reference value :  1.70026e-05
 Reference value :  1.70038e-05
 Reference value :  1.70050e-05
 Reference value :  1.70070e-05
 Reference value :  1.70117e-05
 Reference value :  1.70328e-05
 Reference value :  1.71906e-05
 Reference value :  1.80001e-05
 Reference value :  1.80004e-05
 Reference value :  1.80006e-05
 Reference value :  1.80015e-05
 Reference value :  1.80025e-05
 Reference value :  1.80035e-05
 Reference value :  1.80047e-05
 Reference value :  1.80062e-05
 Reference value :  1.80068e-05
 Reference value :  1.80086e-05
 Reference value :  1.80104e-05
 Reference value :  1.80115e-05
 Reference value :  1.80192e-05
 Reference value :  1.80679e-05
 Reference value :  1.84413e-05
 Reference value :  1.90006e-05
 Reference value :  1.90009e-05
 Reference value :  1.90010e-05
 Reference value :  1.90014e-05
 Reference value :  1.90026e-05
 Reference value :  1.90038e-05
 Reference value :  1.90050e-05
 Reference value :  1.90071e-05
 Reference value :  1.90118e-05
 Reference value :  1.90337e-05
 Reference value :  1.91925e-05
 Reference value :  2.00000e-05
 Reference value :  2.00004e-05
 Reference value :  2.00006e-05
 Reference value :  2.00010e-05
 Reference value :  2.00020e-05
 Reference value :  2.00025e-05
 Reference value :  2.00035e-05
 Reference value :  2.00046e-05
 Reference value :  2.00056e-05
 Reference value :  2.00069e-05
 Reference value :  2.00090e-05
 Reference value :  2.00120e-05
 Reference value :  2.00135e-05
 Reference value :  2.00155e-05
 Reference value :  2.00165e-05
 Reference value :  2.00190e-05
 Reference value :  2.00247e-05
 Reference value :  2.00378e-05
 Reference value :  2.00638e-05
 Reference value :  2.01154e-05
 Reference value :  2.01716e-05
 Reference value :  2.02579e-05
 Reference value :  2.06447e-05
 Reference value :  2.10005e-05
 Reference value :  2.10008e-05
 Reference value :  2.10010e-05
 Reference value :  2.10012e-05
 Reference value :  2.10017e-05
 Reference value :  2.10026e-05
 Reference value :  2.10038e-05
 Reference value :  2.10050e-05
 Reference value :  2.10063e-05
 Reference value :  2.10079e-05
 Reference value :  2.10152e-05
 Reference value :  2.10337e-05
 Reference value :  2.11994e-05
 Reference value :  2.20000e-05
 Reference value :  2.20004e-05
 Reference value :  2.20005e-05
 Reference value :  2.20010e-05
 Reference value :  2.20020e-05
 Reference value :  2.20025e-05
 Reference value :  2.20035e-05
 Reference value :  2.20041e-05
 Reference value :  2.20053e-05
 Reference value :  2.20068e-05
 Reference value :  2.20086e-05
 Reference value :  2.20104e-05
 Reference value :  2.20115e-05
 Reference value :  2.20192e-05
 Reference value :  2.20691e-05
 Reference value :  2.24529e-05
 Reference value :  2.30005e-05
 Reference value :  2.30008e-05
 Reference value :  2.30010e-05
 Reference value :  2.30012e-05
 Reference value :  2.30014e-05
 Reference value :  2.30026e-05
 Reference value :  2.30038e-05
 Reference value :  2.30050e-05
 Reference value :  2.30063e-05
 Reference value :  2.30079e-05
 Reference value :  2.30152e-05
 Reference value :  2.30567e-05
 Reference value :  2.33738e-05
 Reference value :  2.40001e-05
 Reference value :  2.40005e-05
 Reference value :  2.40007e-05
 Reference value :  2.40015e-05
 Reference value :  2.40025e-05
 Reference value :  2.40035e-05
 Reference value :  2.40046e-05
 Reference value :  2.40056e-05
 Reference value :  2.40076e-05
 Reference value :  2.40106e-05
 Reference value :  2.40120e-05
 Reference value :  2.40146e-05
 Reference value :  2.40165e-05
 Reference value :  2.40190e-05
 Reference value :  2.40247e-05
 Reference value :  2.40441e-05
 Reference value :  2.40691e-05
 Reference value :  2.42307e-05
 Reference value :  2.45833e-05
 Reference value :  2.50005e-05
 Reference value :  2.50008e-05
 Reference value :  2.50010e-05
 Reference value :  2.50012e-05
 Reference value :  2.50014e-05
 Reference value :  2.50021e-05
 Reference value :  2.50031e-05
 Reference value :  2.50045e-05
 Reference value :  2.50050e-05
 Reference value :  2.50063e-05
 Reference value :  2.50071e-05
 Reference value :  2.50118e-05
 Reference value :  2.50337e-05
 Reference value :  2.51987e-05
 Reference value :  2.60000e-05
 Reference value :  2.60002e-05
 Reference value :  2.60005e-05
 Reference value :  2.60007e-05
 Reference value :  2.60015e-05
 Reference value :  2.60025e-05
 Reference value :  2.60035e-05
 Reference value :  2.60047e-05
 Reference value :  2.60062e-05
 Reference value :  2.60068e-05
 Reference value :  2.60086e-05
 Reference value :  2.60104e-05
 Reference value :  2.60115e-05
 Reference value :  2.60192e-05
 Reference value :  2.60688e-05
 Reference value :  2.64506e-05
 Reference value :  2.70006e-05
 Reference value :  2.70009e-05
 Reference value :  2.70010e-05
 Reference value :  2.70012e-05
 Reference value :  2.70017e-05
 Reference value :  2.70026e-05
 Reference value :  2.70038e-05
 Reference value :  2.70050e-05
 Reference value :  2.70063e-05
 Reference value :  2.70079e-05
 Reference value :  2.70152e-05
 Reference value :  2.70566e-05
 Reference value :  2.73738e-05
 Reference value :  2.80000e-05
 Reference value :  2.80005e-05
 Reference value :  2.80006e-05
 Reference value :  2.80015e-05
 Reference value :  2.80025e-05
 Reference value :  2.80035e-05
 Reference value :  2.80046e-05
 Reference value :  2.80056e-05
 Reference value :  2.80069e-05
 Reference value :  2.80106e-05
 Reference value :  2.80120e-05
 Reference value :  2.80146e-05
 Reference value :  2.80166e-05
 Reference value :  2.80190e-05
 Reference value :  2.80223e-05
 Reference value :  2.80346e-05
 Reference value :  2.80977e-05
 Reference value :  2.84135e-05
 Reference value :  2.90006e-05
 Reference value :  2.90009e-05
 Reference value :  2.90010e-05
 Reference value :  2.90012e-05
 Reference value :  2.90014e-05
 Reference value :  2.90026e-05
 Reference value :  2.90038e-05
 Reference value :  2.90050e-05
 Reference value :  2.90071e-05
 Reference value :  2.90118e-05
 Reference value :  2.90337e-05
 Reference value :  2.91981e-05
 Reference value :  3.00000e-05
 Reference value :  3.00004e-05
 Reference value :  3.00006e-05
 Reference value :  3.00015e-05
 Reference value :  3.00025e-05
 Reference value :  3.00035e-05
 Reference value :  3.00047e-05
 Reference value :  3.00062e-05
 Reference value :  3.00068e-05
 Reference value :  3.00086e-05
 Reference value :  3.00104e-05
 Reference value :  3.00115e-05
 Reference value :  3.00151e-05
 Reference value :  3.00415e-05
 Reference value :  3.02315e-05
 Reference value :  3.10005e-05
 Reference value :  3.10006e-05
 Reference value :  3.10010e-05
 Reference value :  3.10011e-05
 Reference value :  3.10014e-05
 Reference value :  3.10026e-05
 Reference value :  3.10045e-05
 Reference value :  3.10050e-05
 Reference value :  3.10063e-05
 Reference value :  3.10095e-05
 Reference value :  3.10213e-05
 Reference value :  3.11018e-05
 Reference value :  3.17363e-05
 Reference value :  3.20001e-05
 Reference value :  3.20005e-05
 Reference value :  3.20007e-05
 Reference value :  3.20015e-05
 Reference value :  3.20025e-05
 Reference value :  3.20035e-05
 Reference value :  3.20046e-05
 Reference value :  3.20056e-05
 Reference value :  3.20069e-05
 Reference value :  3.20083e-05
 Reference value :  3.20101e-05
 Reference value :  3.20173e-05
 Reference value :  3.20695e-05
 Reference value :  3.24791e-05
 Reference value :  3.30006e-05
 Reference value :  3.30010e-05
 Reference value :  3.30011e-05
 Reference value :  3.30015e-05
 Reference value :  3.30022e-05
 Reference value :  3.30032e-05
 Reference value :  3.30046e-05
 Reference value :  3.30065e-05
 Reference value :  3.30090e-05
 Reference value :  3.30177e-05
 Reference value :  3.30780e-05
 Reference value :  3.35598e-05
No. of Data Rows : 1208
ngspice-44 done
