
Note: Compatibility modes selected: hs a


Circuit: ** sch_path: /home/audrey/cace/sar-adc-using-sky130-pdk/runs/run_2025-08-29_19-31-03/parameters/power/run_2/power_consumption.sch

option SCALE: Scale is set to 1e-06 for instance and model parameters
option SCALE: Scale is set to 1e-06 for instance and model parameters
option SCALE: Scale is set to 1e-06 for instance and model parameters
option SCALE: Scale is set to 1e-06 for instance and model parameters
Doing analysis at TEMP = 27.000000 and TNOM = 27.000000

Using KLU as Direct Linear Solver
Operating point simulation skipped by 'uic',
  now using transient initial conditions.
 Reference value :  5.00000e-12
 Reference value :  5.13105e-12
 Reference value :  5.39314e-12
 Reference value :  5.91732e-12
 Reference value :  6.96569e-12
 Reference value :  8.81722e-12
 Reference value :  1.18315e-11
 Reference value :  1.72939e-11
 Reference value :  2.79480e-11
 Reference value :  4.12079e-11
 Reference value :  6.57363e-11
 Reference value :  9.49488e-11
 Reference value :  1.46665e-10
 Reference value :  2.07323e-10
 Reference value :  3.28639e-10
 Reference value :  4.64680e-10
 Reference value :  5.00000e-10
 Reference value :  5.04399e-10
 Reference value :  5.13198e-10
 Reference value :  5.30795e-10
 Reference value :  5.65989e-10
 Reference value :  6.36376e-10
 Reference value :  7.77152e-10
 Reference value :  1.05870e-09
 Reference value :  1.62180e-09
 Reference value :  2.74801e-09
 Reference value :  4.70152e-09
 Reference value :  6.71584e-09
 Reference value :  1.07445e-08
 Reference value :  1.77832e-08
 Reference value :  2.62022e-08
 Reference value :  3.94955e-08
 Reference value :  5.60329e-08
 Reference value :  8.77300e-08
 Reference value :  1.29946e-07
 Reference value :  2.14377e-07
 Reference value :  3.83240e-07
 Reference value :  5.00000e-07
 Reference value :  5.33773e-07
 Reference value :  6.01318e-07
 Reference value :  7.36408e-07
 Reference value :  1.00050e-06
 Reference value :  1.00055e-06
 Reference value :  1.00065e-06
 Reference value :  1.00085e-06
 Reference value :  1.00100e-06
 Reference value :  1.00103e-06
 Reference value :  1.00110e-06
 Reference value :  1.00124e-06
 Reference value :  1.00151e-06
 Reference value :  1.00199e-06
 Reference value :  1.00256e-06
 Reference value :  1.00343e-06
 Reference value :  1.00473e-06
 Reference value :  1.00705e-06
 Reference value :  1.01034e-06
 Reference value :  1.01692e-06
 Reference value :  1.02609e-06
 Reference value :  1.03501e-06
 Reference value :  1.04475e-06
 Reference value :  1.05652e-06
 Reference value :  1.06935e-06
 Reference value :  1.08812e-06
 Reference value :  1.10861e-06
 Reference value :  1.13112e-06
 Reference value :  1.15218e-06
 Reference value :  1.16745e-06
 Reference value :  1.18370e-06
 Reference value :  1.19494e-06
 Reference value :  1.20664e-06
 Reference value :  1.21492e-06
 Reference value :  1.22360e-06
 Reference value :  1.23068e-06
 Reference value :  1.23851e-06
 Reference value :  1.24759e-06
 Reference value :  1.25432e-06
 Reference value :  1.26053e-06
 Reference value :  1.26612e-06
 Reference value :  1.27204e-06
 Reference value :  1.27894e-06
 Reference value :  1.28610e-06
 Reference value :  1.29665e-06
 Reference value :  1.30940e-06
 Reference value :  1.32786e-06
 Reference value :  1.34543e-06
 Reference value :  1.36433e-06
 Reference value :  1.37923e-06
 Reference value :  1.39126e-06
 Reference value :  1.40342e-06
 Reference value :  1.41215e-06
 Reference value :  1.42241e-06
 Reference value :  1.44292e-06
 Reference value :  1.46449e-06
 Reference value :  1.50413e-06
 Reference value :  1.55973e-06
 Reference value :  1.64463e-06
 Reference value :  1.76715e-06
 Reference value :  1.86238e-06
 Reference value :  1.87483e-06
 Reference value :  1.89975e-06
 Reference value :  1.93340e-06
 Reference value :  1.96508e-06
 Reference value :  1.99512e-06
 Reference value :  2.00000e-06
 Reference value :  2.00005e-06
 Reference value :  2.00015e-06
 Reference value :  2.00035e-06
 Reference value :  2.00050e-06
 Reference value :  2.00051e-06
 Reference value :  2.00053e-06
 Reference value :  2.00056e-06
 Reference value :  2.00064e-06
 Reference value :  2.00079e-06
 Reference value :  2.00108e-06
 Reference value :  2.00167e-06
 Reference value :  2.00285e-06
 Reference value :  2.00413e-06
 Reference value :  2.00612e-06
 Reference value :  2.00929e-06
 Reference value :  2.01324e-06
 Reference value :  2.01759e-06
 Reference value :  2.02386e-06
 Reference value :  2.03578e-06
 Reference value :  2.05480e-06
 Reference value :  2.07597e-06
 Reference value :  2.09911e-06
 Reference value :  2.12737e-06
 Reference value :  2.15828e-06
 Reference value :  2.20963e-06
 Reference value :  2.27884e-06
 Reference value :  2.39181e-06
 Reference value :  2.57661e-06
 Reference value :  2.86468e-06
 Reference value :  3.00050e-06
 Reference value :  3.00055e-06
 Reference value :  3.00065e-06
 Reference value :  3.00085e-06
 Reference value :  3.00100e-06
 Reference value :  3.00103e-06
 Reference value :  3.00109e-06
 Reference value :  3.00120e-06
 Reference value :  3.00143e-06
 Reference value :  3.00182e-06
 Reference value :  3.00218e-06
 Reference value :  3.00277e-06
 Reference value :  3.00354e-06
 Reference value :  3.00509e-06
 Reference value :  3.00817e-06
 Reference value :  3.01434e-06
 Reference value :  3.02667e-06
 Reference value :  3.05135e-06
 Reference value :  3.08117e-06
 Reference value :  3.12916e-06
 Reference value :  3.18344e-06
 Reference value :  3.26964e-06
 Reference value :  3.38625e-06
 Reference value :  3.61946e-06
 Reference value :  3.88136e-06
 Reference value :  4.00000e-06
 Reference value :  4.00005e-06
 Reference value :  4.00015e-06
 Reference value :  4.00035e-06
 Reference value :  4.00050e-06
 Reference value :  4.00051e-06
 Reference value :  4.00053e-06
 Reference value :  4.00056e-06
 Reference value :  4.00063e-06
 Reference value :  4.00077e-06
 Reference value :  4.00105e-06
 Reference value :  4.00161e-06
 Reference value :  4.00272e-06
 Reference value :  4.00404e-06
 Reference value :  4.00602e-06
 Reference value :  4.00902e-06
 Reference value :  4.01277e-06
 Reference value :  4.01770e-06
 Reference value :  4.02333e-06
 Reference value :  4.03457e-06
 Reference value :  4.05659e-06
 Reference value :  4.09873e-06
 Reference value :  4.17509e-06
 Reference value :  4.27918e-06
 Reference value :  4.48736e-06
 Reference value :  4.85489e-06
 Reference value :  5.00050e-06
 Reference value :  5.00055e-06
 Reference value :  5.00065e-06
 Reference value :  5.00085e-06
 Reference value :  5.00100e-06
 Reference value :  5.00103e-06
 Reference value :  5.00109e-06
 Reference value :  5.00121e-06
 Reference value :  5.00146e-06
 Reference value :  5.00180e-06
 Reference value :  5.00217e-06
 Reference value :  5.00276e-06
 Reference value :  5.00358e-06
 Reference value :  5.00523e-06
 Reference value :  5.00852e-06
 Reference value :  5.01512e-06
 Reference value :  5.02830e-06
 Reference value :  5.05246e-06
 Reference value :  5.08241e-06
 Reference value :  5.12765e-06
 Reference value :  5.17475e-06
 Reference value :  5.24860e-06
 Reference value :  5.37785e-06
 Reference value :  5.56561e-06
 Reference value :  5.57032e-06
 Reference value :  5.57973e-06
 Reference value :  5.59855e-06
 Reference value :  5.63620e-06
 Reference value :  5.71149e-06
 Reference value :  5.86208e-06
 Reference value :  6.00000e-06
 Reference value :  6.00005e-06
 Reference value :  6.00015e-06
 Reference value :  6.00035e-06
 Reference value :  6.00050e-06
 Reference value :  6.00051e-06
 Reference value :  6.00053e-06
 Reference value :  6.00058e-06
 Reference value :  6.00067e-06
 Reference value :  6.00085e-06
 Reference value :  6.00122e-06
 Reference value :  6.00195e-06
 Reference value :  6.00342e-06
 Reference value :  6.00529e-06
 Reference value :  6.00788e-06
 Reference value :  6.01190e-06
 Reference value :  6.01694e-06
 Reference value :  6.02537e-06
 Reference value :  6.03333e-06
 Reference value :  6.04662e-06
 Reference value :  6.07189e-06
 Reference value :  6.11009e-06
 Reference value :  6.18650e-06
 Reference value :  6.30306e-06
 Reference value :  6.53608e-06
 Reference value :  6.86461e-06
 Reference value :  7.00050e-06
 Reference value :  7.00055e-06
 Reference value :  7.00065e-06
 Reference value :  7.00085e-06
 Reference value :  7.00100e-06
 Reference value :  7.00103e-06
 Reference value :  7.00109e-06
 Reference value :  7.00121e-06
 Reference value :  7.00144e-06
 Reference value :  7.00176e-06
 Reference value :  7.00218e-06
 Reference value :  7.00277e-06
 Reference value :  7.00385e-06
 Reference value :  7.00601e-06
 Reference value :  7.01033e-06
 Reference value :  7.01896e-06
 Reference value :  7.03623e-06
 Reference value :  7.07077e-06
 Reference value :  7.13985e-06
 Reference value :  7.24551e-06
 Reference value :  7.39298e-06
 Reference value :  7.54761e-06
 Reference value :  7.76959e-06
 Reference value :  8.00000e-06
 Reference value :  8.00005e-06
 Reference value :  8.00015e-06
 Reference value :  8.00035e-06
 Reference value :  8.00050e-06
 Reference value :  8.00051e-06
 Reference value :  8.00054e-06
 Reference value :  8.00058e-06
 Reference value :  8.00068e-06
 Reference value :  8.00087e-06
 Reference value :  8.00126e-06
 Reference value :  8.00203e-06
 Reference value :  8.00358e-06
 Reference value :  8.00667e-06
 Reference value :  8.00982e-06
 Reference value :  8.01507e-06
 Reference value :  8.02191e-06
 Reference value :  8.03449e-06
 Reference value :  8.04968e-06
 Reference value :  8.06574e-06
 Reference value :  8.09365e-06
 Reference value :  8.13224e-06
 Reference value :  8.19609e-06
 Reference value :  8.30430e-06
 Reference value :  8.47483e-06
 Reference value :  8.72822e-06
 Reference value :  9.00050e-06
 Reference value :  9.00055e-06
 Reference value :  9.00065e-06
 Reference value :  9.00085e-06
 Reference value :  9.00100e-06
 Reference value :  9.00103e-06
 Reference value :  9.00109e-06
 Reference value :  9.00121e-06
 Reference value :  9.00146e-06
 Reference value :  9.00177e-06
 Reference value :  9.00220e-06
 Reference value :  9.00279e-06
 Reference value :  9.00396e-06
 Reference value :  9.00630e-06
 Reference value :  9.01099e-06
 Reference value :  9.02036e-06
 Reference value :  9.03909e-06
 Reference value :  9.07657e-06
 Reference value :  9.13651e-06
 Reference value :  9.21584e-06
 Reference value :  9.32515e-06
 Reference value :  9.47465e-06
 Reference value :  9.63674e-06
 Reference value :  9.83325e-06
 Reference value :  1.00000e-05
 Reference value :  1.00000e-05
 Reference value :  1.00001e-05
 Reference value :  1.00003e-05
 Reference value :  1.00005e-05
 Reference value :  1.00005e-05
 Reference value :  1.00005e-05
 Reference value :  1.00006e-05
 Reference value :  1.00007e-05
 Reference value :  1.00009e-05
 Reference value :  1.00013e-05
 Reference value :  1.00021e-05
 Reference value :  1.00037e-05
 Reference value :  1.00061e-05
 Reference value :  1.00090e-05
 Reference value :  1.00138e-05
 Reference value :  1.00193e-05
 Reference value :  1.00288e-05
 Reference value :  1.00384e-05
 Reference value :  1.00530e-05
 Reference value :  1.00822e-05
 Reference value :  1.01280e-05
 Reference value :  1.02197e-05
 Reference value :  1.03477e-05
 Reference value :  1.05097e-05
 Reference value :  1.06734e-05
 Reference value :  1.09886e-05
 Reference value :  1.10005e-05
 Reference value :  1.10005e-05
 Reference value :  1.10006e-05
 Reference value :  1.10008e-05
 Reference value :  1.10010e-05
 Reference value :  1.10010e-05
 Reference value :  1.10011e-05
 Reference value :  1.10012e-05
 Reference value :  1.10015e-05
 Reference value :  1.10018e-05
 Reference value :  1.10022e-05
 Reference value :  1.10028e-05
 Reference value :  1.10039e-05
 Reference value :  1.10062e-05
 Reference value :  1.10108e-05
 Reference value :  1.10199e-05
 Reference value :  1.10381e-05
 Reference value :  1.10746e-05
 Reference value :  1.11476e-05
 Reference value :  1.12433e-05
 Reference value :  1.13940e-05
 Reference value :  1.15953e-05
 Reference value :  1.19032e-05
 Reference value :  1.20000e-05
 Reference value :  1.20000e-05
 Reference value :  1.20001e-05
 Reference value :  1.20003e-05
 Reference value :  1.20005e-05
 Reference value :  1.20005e-05
 Reference value :  1.20005e-05
 Reference value :  1.20006e-05
 Reference value :  1.20007e-05
 Reference value :  1.20009e-05
 Reference value :  1.20013e-05
 Reference value :  1.20021e-05
 Reference value :  1.20037e-05
 Reference value :  1.20068e-05
 Reference value :  1.20098e-05
 Reference value :  1.20155e-05
 Reference value :  1.20217e-05
 Reference value :  1.20325e-05
 Reference value :  1.20436e-05
 Reference value :  1.20600e-05
 Reference value :  1.20928e-05
 Reference value :  1.21443e-05
 Reference value :  1.22472e-05
 Reference value :  1.23933e-05
 Reference value :  1.25527e-05
 Reference value :  1.27658e-05
 Reference value :  1.30005e-05
 Reference value :  1.30006e-05
 Reference value :  1.30007e-05
 Reference value :  1.30009e-05
 Reference value :  1.30010e-05
 Reference value :  1.30010e-05
 Reference value :  1.30011e-05
 Reference value :  1.30012e-05
 Reference value :  1.30014e-05
 Reference value :  1.30018e-05
 Reference value :  1.30022e-05
 Reference value :  1.30028e-05
 Reference value :  1.30038e-05
 Reference value :  1.30060e-05
 Reference value :  1.30103e-05
 Reference value :  1.30188e-05
 Reference value :  1.30359e-05
 Reference value :  1.30701e-05
 Reference value :  1.31385e-05
 Reference value :  1.31985e-05
 Reference value :  1.32444e-05
 Reference value :  1.32884e-05
 Reference value :  1.33294e-05
 Reference value :  1.33783e-05
 Reference value :  1.34245e-05
 Reference value :  1.34840e-05
 Reference value :  1.35513e-05
 Reference value :  1.36354e-05
 Reference value :  1.37428e-05
 Reference value :  1.38790e-05
 Reference value :  1.40000e-05
 Reference value :  1.40000e-05
 Reference value :  1.40002e-05
 Reference value :  1.40004e-05
 Reference value :  1.40005e-05
 Reference value :  1.40005e-05
 Reference value :  1.40005e-05
 Reference value :  1.40006e-05
 Reference value :  1.40007e-05
 Reference value :  1.40009e-05
 Reference value :  1.40013e-05
 Reference value :  1.40021e-05
 Reference value :  1.40037e-05
 Reference value :  1.40069e-05
 Reference value :  1.40105e-05
 Reference value :  1.40168e-05
 Reference value :  1.40241e-05
 Reference value :  1.40355e-05
 Reference value :  1.40512e-05
 Reference value :  1.40671e-05
 Reference value :  1.40989e-05
 Reference value :  1.41623e-05
 Reference value :  1.42792e-05
 Reference value :  1.44436e-05
 Reference value :  1.46387e-05
 Reference value :  1.49514e-05
 Reference value :  1.50005e-05
 Reference value :  1.50005e-05
 Reference value :  1.50007e-05
 Reference value :  1.50009e-05
 Reference value :  1.50010e-05
 Reference value :  1.50010e-05
 Reference value :  1.50011e-05
 Reference value :  1.50012e-05
 Reference value :  1.50014e-05
 Reference value :  1.50018e-05
 Reference value :  1.50022e-05
 Reference value :  1.50028e-05
 Reference value :  1.50039e-05
 Reference value :  1.50061e-05
 Reference value :  1.50106e-05
 Reference value :  1.50194e-05
 Reference value :  1.50372e-05
 Reference value :  1.50613e-05
 Reference value :  1.50868e-05
 Reference value :  1.51172e-05
 Reference value :  1.51522e-05
 Reference value :  1.52221e-05
 Reference value :  1.53619e-05
 Reference value :  1.54827e-05
 Reference value :  1.56099e-05
 Reference value :  1.58204e-05
 Reference value :  1.60000e-05
 Reference value :  1.60000e-05
 Reference value :  1.60001e-05
 Reference value :  1.60004e-05
 Reference value :  1.60005e-05
 Reference value :  1.60005e-05
 Reference value :  1.60005e-05
 Reference value :  1.60006e-05
 Reference value :  1.60007e-05
 Reference value :  1.60008e-05
 Reference value :  1.60012e-05
 Reference value :  1.60018e-05
 Reference value :  1.60032e-05
 Reference value :  1.60059e-05
 Reference value :  1.60113e-05
 Reference value :  1.60222e-05
 Reference value :  1.60439e-05
 Reference value :  1.60760e-05
 Reference value :  1.61100e-05
 Reference value :  1.61782e-05
 Reference value :  1.62941e-05
 Reference value :  1.64184e-05
 Reference value :  1.65541e-05
 Reference value :  1.67517e-05
 Reference value :  1.70005e-05
 Reference value :  1.70006e-05
 Reference value :  1.70007e-05
 Reference value :  1.70009e-05
 Reference value :  1.70010e-05
 Reference value :  1.70010e-05
 Reference value :  1.70011e-05
 Reference value :  1.70012e-05
 Reference value :  1.70014e-05
 Reference value :  1.70018e-05
 Reference value :  1.70022e-05
 Reference value :  1.70028e-05
 Reference value :  1.70038e-05
 Reference value :  1.70060e-05
 Reference value :  1.70102e-05
 Reference value :  1.70187e-05
 Reference value :  1.70357e-05
 Reference value :  1.70697e-05
 Reference value :  1.71377e-05
 Reference value :  1.72445e-05
 Reference value :  1.73363e-05
 Reference value :  1.74345e-05
 Reference value :  1.75950e-05
 Reference value :  1.77886e-05
 Reference value :  1.80000e-05
 Reference value :  1.80001e-05
 Reference value :  1.80002e-05
 Reference value :  1.80004e-05
 Reference value :  1.80005e-05
 Reference value :  1.80005e-05
 Reference value :  1.80005e-05
 Reference value :  1.80006e-05
 Reference value :  1.80007e-05
 Reference value :  1.80008e-05
 Reference value :  1.80012e-05
 Reference value :  1.80018e-05
 Reference value :  1.80032e-05
 Reference value :  1.80059e-05
 Reference value :  1.80114e-05
 Reference value :  1.80222e-05
 Reference value :  1.80440e-05
 Reference value :  1.80780e-05
 Reference value :  1.81126e-05
 Reference value :  1.81810e-05
 Reference value :  1.82997e-05
 Reference value :  1.84219e-05
 Reference value :  1.85726e-05
 Reference value :  1.86741e-05
 Reference value :  1.87696e-05
 Reference value :  1.88729e-05
 Reference value :  1.89703e-05
 Reference value :  1.90005e-05
 Reference value :  1.90006e-05
 Reference value :  1.90007e-05
 Reference value :  1.90009e-05
 Reference value :  1.90010e-05
 Reference value :  1.90010e-05
 Reference value :  1.90011e-05
 Reference value :  1.90012e-05
 Reference value :  1.90014e-05
 Reference value :  1.90018e-05
 Reference value :  1.90022e-05
 Reference value :  1.90028e-05
 Reference value :  1.90038e-05
 Reference value :  1.90060e-05
 Reference value :  1.90103e-05
 Reference value :  1.90188e-05
 Reference value :  1.90360e-05
 Reference value :  1.90703e-05
 Reference value :  1.91389e-05
 Reference value :  1.92520e-05
 Reference value :  1.94092e-05
 Reference value :  1.96628e-05
 Reference value :  2.00000e-05
 Reference value :  2.00001e-05
 Reference value :  2.00002e-05
 Reference value :  2.00004e-05
 Reference value :  2.00005e-05
 Reference value :  2.00005e-05
 Reference value :  2.00005e-05
 Reference value :  2.00006e-05
 Reference value :  2.00007e-05
 Reference value :  2.00008e-05
 Reference value :  2.00012e-05
 Reference value :  2.00018e-05
 Reference value :  2.00032e-05
 Reference value :  2.00059e-05
 Reference value :  2.00113e-05
 Reference value :  2.00222e-05
 Reference value :  2.00439e-05
 Reference value :  2.00765e-05
 Reference value :  2.01107e-05
 Reference value :  2.01791e-05
 Reference value :  2.02972e-05
 Reference value :  2.04214e-05
 Reference value :  2.05605e-05
 Reference value :  2.07979e-05
 Reference value :  2.10005e-05
 Reference value :  2.10005e-05
 Reference value :  2.10006e-05
 Reference value :  2.10008e-05
 Reference value :  2.10010e-05
 Reference value :  2.10010e-05
 Reference value :  2.10011e-05
 Reference value :  2.10012e-05
 Reference value :  2.10014e-05
 Reference value :  2.10018e-05
 Reference value :  2.10022e-05
 Reference value :  2.10028e-05
 Reference value :  2.10038e-05
 Reference value :  2.10060e-05
 Reference value :  2.10102e-05
 Reference value :  2.10187e-05
 Reference value :  2.10357e-05
 Reference value :  2.10697e-05
 Reference value :  2.11378e-05
 Reference value :  2.12506e-05
 Reference value :  2.14070e-05
 Reference value :  2.16595e-05
 Reference value :  2.20000e-05
 Reference value :  2.20000e-05
 Reference value :  2.20001e-05
 Reference value :  2.20004e-05
 Reference value :  2.20005e-05
 Reference value :  2.20005e-05
 Reference value :  2.20005e-05
 Reference value :  2.20006e-05
 Reference value :  2.20007e-05
 Reference value :  2.20008e-05
 Reference value :  2.20012e-05
 Reference value :  2.20018e-05
 Reference value :  2.20032e-05
 Reference value :  2.20059e-05
 Reference value :  2.20113e-05
 Reference value :  2.20222e-05
 Reference value :  2.20439e-05
 Reference value :  2.20766e-05
 Reference value :  2.21108e-05
 Reference value :  2.21792e-05
 Reference value :  2.22973e-05
 Reference value :  2.24214e-05
 Reference value :  2.25613e-05
 Reference value :  2.27971e-05
 Reference value :  2.30005e-05
 Reference value :  2.30005e-05
 Reference value :  2.30006e-05
 Reference value :  2.30008e-05
 Reference value :  2.30010e-05
 Reference value :  2.30010e-05
 Reference value :  2.30011e-05
 Reference value :  2.30012e-05
 Reference value :  2.30014e-05
 Reference value :  2.30018e-05
 Reference value :  2.30022e-05
 Reference value :  2.30028e-05
 Reference value :  2.30038e-05
 Reference value :  2.30060e-05
 Reference value :  2.30102e-05
 Reference value :  2.30187e-05
 Reference value :  2.30357e-05
 Reference value :  2.30697e-05
 Reference value :  2.31378e-05
 Reference value :  2.32515e-05
 Reference value :  2.34086e-05
 Reference value :  2.36631e-05
 Reference value :  2.40000e-05
 Reference value :  2.40001e-05
 Reference value :  2.40002e-05
 Reference value :  2.40004e-05
 Reference value :  2.40005e-05
 Reference value :  2.40005e-05
 Reference value :  2.40005e-05
 Reference value :  2.40006e-05
 Reference value :  2.40007e-05
 Reference value :  2.40008e-05
 Reference value :  2.40012e-05
 Reference value :  2.40018e-05
 Reference value :  2.40032e-05
 Reference value :  2.40059e-05
 Reference value :  2.40113e-05
 Reference value :  2.40222e-05
 Reference value :  2.40439e-05
 Reference value :  2.40766e-05
 Reference value :  2.41108e-05
 Reference value :  2.41792e-05
 Reference value :  2.42974e-05
 Reference value :  2.44214e-05
 Reference value :  2.45617e-05
 Reference value :  2.47967e-05
 Reference value :  2.50005e-05
 Reference value :  2.50005e-05
 Reference value :  2.50006e-05
 Reference value :  2.50008e-05
 Reference value :  2.50010e-05
 Reference value :  2.50010e-05
 Reference value :  2.50011e-05
 Reference value :  2.50012e-05
 Reference value :  2.50014e-05
 Reference value :  2.50018e-05
 Reference value :  2.50022e-05
 Reference value :  2.50028e-05
 Reference value :  2.50038e-05
 Reference value :  2.50060e-05
 Reference value :  2.50102e-05
 Reference value :  2.50187e-05
 Reference value :  2.50357e-05
 Reference value :  2.50698e-05
 Reference value :  2.51378e-05
 Reference value :  2.52522e-05
 Reference value :  2.54098e-05
 Reference value :  2.56657e-05
 Reference value :  2.60000e-05
 Reference value :  2.60001e-05
 Reference value :  2.60002e-05
 Reference value :  2.60004e-05
 Reference value :  2.60005e-05
 Reference value :  2.60005e-05
 Reference value :  2.60005e-05
 Reference value :  2.60006e-05
 Reference value :  2.60007e-05
 Reference value :  2.60008e-05
 Reference value :  2.60012e-05
 Reference value :  2.60018e-05
 Reference value :  2.60032e-05
 Reference value :  2.60059e-05
 Reference value :  2.60113e-05
 Reference value :  2.60222e-05
 Reference value :  2.60439e-05
 Reference value :  2.60767e-05
 Reference value :  2.61109e-05
 Reference value :  2.61793e-05
 Reference value :  2.62974e-05
 Reference value :  2.64214e-05
 Reference value :  2.65620e-05
 Reference value :  2.67965e-05
 Reference value :  2.70005e-05
 Reference value :  2.70006e-05
 Reference value :  2.70007e-05
 Reference value :  2.70009e-05
 Reference value :  2.70010e-05
 Reference value :  2.70010e-05
 Reference value :  2.70011e-05
 Reference value :  2.70012e-05
 Reference value :  2.70014e-05
 Reference value :  2.70018e-05
 Reference value :  2.70022e-05
 Reference value :  2.70028e-05
 Reference value :  2.70038e-05
 Reference value :  2.70060e-05
 Reference value :  2.70102e-05
 Reference value :  2.70187e-05
 Reference value :  2.70357e-05
 Reference value :  2.70698e-05
 Reference value :  2.71378e-05
 Reference value :  2.72527e-05
 Reference value :  2.74106e-05
 Reference value :  2.76674e-05
 Reference value :  2.80000e-05
 Reference value :  2.80000e-05
 Reference value :  2.80001e-05
 Reference value :  2.80004e-05
 Reference value :  2.80005e-05
 Reference value :  2.80005e-05
 Reference value :  2.80005e-05
 Reference value :  2.80006e-05
 Reference value :  2.80007e-05
 Reference value :  2.80008e-05
 Reference value :  2.80012e-05
 Reference value :  2.80018e-05
 Reference value :  2.80032e-05
 Reference value :  2.80059e-05
 Reference value :  2.80113e-05
 Reference value :  2.80222e-05
 Reference value :  2.80439e-05
 Reference value :  2.80772e-05
 Reference value :  2.81113e-05
 Reference value :  2.81793e-05
 Reference value :  2.82978e-05
 Reference value :  2.84218e-05
 Reference value :  2.85625e-05
 Reference value :  2.87970e-05
 Reference value :  2.90005e-05
 Reference value :  2.90006e-05
 Reference value :  2.90007e-05
 Reference value :  2.90009e-05
 Reference value :  2.90010e-05
 Reference value :  2.90010e-05
 Reference value :  2.90011e-05
 Reference value :  2.90012e-05
 Reference value :  2.90014e-05
 Reference value :  2.90018e-05
 Reference value :  2.90022e-05
 Reference value :  2.90028e-05
 Reference value :  2.90038e-05
 Reference value :  2.90060e-05
 Reference value :  2.90102e-05
 Reference value :  2.90187e-05
 Reference value :  2.90357e-05
 Reference value :  2.90698e-05
 Reference value :  2.91378e-05
 Reference value :  2.92530e-05
 Reference value :  2.94111e-05
 Reference value :  2.96685e-05
 Reference value :  3.00000e-05
 Reference value :  3.00001e-05
 Reference value :  3.00002e-05
 Reference value :  3.00004e-05
 Reference value :  3.00005e-05
 Reference value :  3.00005e-05
 Reference value :  3.00005e-05
 Reference value :  3.00006e-05
 Reference value :  3.00007e-05
 Reference value :  3.00008e-05
 Reference value :  3.00012e-05
 Reference value :  3.00018e-05
 Reference value :  3.00032e-05
 Reference value :  3.00059e-05
 Reference value :  3.00113e-05
 Reference value :  3.00222e-05
 Reference value :  3.00439e-05
 Reference value :  3.00777e-05
 Reference value :  3.01115e-05
 Reference value :  3.01793e-05
 Reference value :  3.02982e-05
 Reference value :  3.04221e-05
 Reference value :  3.05628e-05
 Reference value :  3.07974e-05
 Reference value :  3.10005e-05
 Reference value :  3.10005e-05
 Reference value :  3.10006e-05
 Reference value :  3.10008e-05
 Reference value :  3.10010e-05
 Reference value :  3.10010e-05
 Reference value :  3.10011e-05
 Reference value :  3.10012e-05
 Reference value :  3.10014e-05
 Reference value :  3.10018e-05
 Reference value :  3.10022e-05
 Reference value :  3.10028e-05
 Reference value :  3.10038e-05
 Reference value :  3.10060e-05
 Reference value :  3.10102e-05
 Reference value :  3.10187e-05
 Reference value :  3.10357e-05
 Reference value :  3.10698e-05
 Reference value :  3.11378e-05
 Reference value :  3.12532e-05
 Reference value :  3.14114e-05
 Reference value :  3.16692e-05
 Reference value :  3.20000e-05
 Reference value :  3.20000e-05
 Reference value :  3.20001e-05
 Reference value :  3.20003e-05
 Reference value :  3.20005e-05
 Reference value :  3.20005e-05
 Reference value :  3.20005e-05
 Reference value :  3.20006e-05
 Reference value :  3.20007e-05
 Reference value :  3.20008e-05
 Reference value :  3.20012e-05
 Reference value :  3.20018e-05
 Reference value :  3.20032e-05
 Reference value :  3.20059e-05
 Reference value :  3.20113e-05
 Reference value :  3.20222e-05
 Reference value :  3.20439e-05
 Reference value :  3.20779e-05
 Reference value :  3.21117e-05
 Reference value :  3.21793e-05
 Reference value :  3.22984e-05
 Reference value :  3.24223e-05
 Reference value :  3.25630e-05
 Reference value :  3.27977e-05
 Reference value :  3.30005e-05
 Reference value :  3.30006e-05
 Reference value :  3.30007e-05
 Reference value :  3.30009e-05
 Reference value :  3.30010e-05
 Reference value :  3.30010e-05
 Reference value :  3.30011e-05
 Reference value :  3.30012e-05
 Reference value :  3.30014e-05
 Reference value :  3.30018e-05
 Reference value :  3.30022e-05
 Reference value :  3.30028e-05
 Reference value :  3.30038e-05
 Reference value :  3.30060e-05
 Reference value :  3.30102e-05
 Reference value :  3.30187e-05
 Reference value :  3.30357e-05
 Reference value :  3.30698e-05
 Reference value :  3.31378e-05
 Reference value :  3.32533e-05
 Reference value :  3.34116e-05
 Reference value :  3.36697e-05
 Reference value :  3.40000e-05
No. of Data Rows : 891
ngspice-44 done
