
Note: Compatibility modes selected: hs a


Circuit: ** sch_path: /home/ece/cace/sar-adc-using-sky130-pdk/runs/run_2025-09-13_00-50-29/parameters/dnl/run_2/sar_output_dnl.sch

option SCALE: Scale is set to 1e-06 for instance and model parameters
option SCALE: Scale is set to 1e-06 for instance and model parameters
option SCALE: Scale is set to 1e-06 for instance and model parameters
option SCALE: Scale is set to 1e-06 for instance and model parameters
Doing analysis at TEMP = 27.000000 and TNOM = 27.000000

Using KLU as Direct Linear Solver
Operating point simulation skipped by 'uic',
  now using transient initial conditions.
 Reference value :  1.00000e-12
 Reference value :  1.19600e-12
 Reference value :  4.43878e-12
 Reference value :  3.44690e-11
 Reference value :  1.05493e-10
 Reference value :  2.70285e-10
 Reference value :  6.82572e-10
 Reference value :  1.85040e-09
 Reference value :  4.07738e-09
 Reference value :  6.10016e-09
 Reference value :  8.31830e-09
 Reference value :  1.14173e-08
 Reference value :  1.30092e-08
 Reference value :  1.82338e-08
 Reference value :  3.15768e-08
 Reference value :  1.51000e-07
 Reference value :  2.18234e-07
 Reference value :  2.50130e-07
 Reference value :  2.50223e-07
 Reference value :  2.50528e-07
 Reference value :  2.50950e-07
 Reference value :  2.51671e-07
 Reference value :  2.53200e-07
 Reference value :  2.54207e-07
 Reference value :  2.55436e-07
 Reference value :  2.58688e-07
 Reference value :  2.67758e-07
 Reference value :  2.77479e-07
 Reference value :  3.17025e-07
 Reference value :  5.00000e-07
 Reference value :  5.00100e-07
 Reference value :  5.00220e-07
 Reference value :  5.00827e-07
 Reference value :  5.01532e-07
 Reference value :  5.02818e-07
 Reference value :  5.04630e-07
 Reference value :  5.06443e-07
 Reference value :  5.08785e-07
 Reference value :  5.11229e-07
 Reference value :  5.13779e-07
 Reference value :  5.20636e-07
 Reference value :  5.81627e-07
 Reference value :  7.50110e-07
 Reference value :  7.50200e-07
 Reference value :  7.50256e-07
 Reference value :  7.50448e-07
 Reference value :  7.50986e-07
 Reference value :  7.51860e-07
 Reference value :  7.52990e-07
 Reference value :  7.53972e-07
 Reference value :  7.55028e-07
 Reference value :  7.57453e-07
 Reference value :  7.60934e-07
 Reference value :  7.88235e-07
 Reference value :  9.86040e-07
 Reference value :  1.00003e-06
 Reference value :  1.00011e-06
 Reference value :  1.00022e-06
 Reference value :  1.00052e-06
 Reference value :  1.00119e-06
 Reference value :  1.00158e-06
 Reference value :  1.00242e-06
 Reference value :  1.00342e-06
 Reference value :  1.00439e-06
 Reference value :  1.00533e-06
 Reference value :  1.00757e-06
 Reference value :  1.00933e-06
 Reference value :  1.01018e-06
 Reference value :  1.01192e-06
 Reference value :  1.01353e-06
 Reference value :  1.01624e-06
 Reference value :  1.02046e-06
 Reference value :  1.05331e-06
 Reference value :  1.12514e-06
 Reference value :  1.15798e-06
 Reference value :  1.18290e-06
 Reference value :  1.19440e-06
 Reference value :  1.21739e-06
 Reference value :  1.25010e-06
 Reference value :  1.25017e-06
 Reference value :  1.25022e-06
 Reference value :  1.25069e-06
 Reference value :  1.25140e-06
 Reference value :  1.25300e-06
 Reference value :  1.25399e-06
 Reference value :  1.25608e-06
 Reference value :  1.26193e-06
 Reference value :  1.32108e-06
 Reference value :  1.50001e-06
 Reference value :  1.50010e-06
 Reference value :  1.50016e-06
 Reference value :  1.50052e-06
 Reference value :  1.50119e-06
 Reference value :  1.50158e-06
 Reference value :  1.50242e-06
 Reference value :  1.50290e-06
 Reference value :  1.50399e-06
 Reference value :  1.50552e-06
 Reference value :  1.50616e-06
 Reference value :  1.50771e-06
 Reference value :  1.50957e-06
 Reference value :  1.51252e-06
 Reference value :  1.52071e-06
 Reference value :  1.54855e-06
 Reference value :  1.65891e-06
 Reference value :  1.75011e-06
 Reference value :  1.75017e-06
 Reference value :  1.75021e-06
 Reference value :  1.75026e-06
 Reference value :  1.75045e-06
 Reference value :  1.75098e-06
 Reference value :  1.75140e-06
 Reference value :  1.75230e-06
 Reference value :  1.75345e-06
 Reference value :  1.75449e-06
 Reference value :  1.75580e-06
 Reference value :  1.75825e-06
 Reference value :  1.76365e-06
 Reference value :  1.80787e-06
 Reference value :  2.00000e-06
 Reference value :  2.00007e-06
 Reference value :  2.00012e-06
 Reference value :  2.00034e-06
 Reference value :  2.00083e-06
 Reference value :  2.00158e-06
 Reference value :  2.00289e-06
 Reference value :  2.00450e-06
 Reference value :  2.00554e-06
 Reference value :  2.00847e-06
 Reference value :  2.01120e-06
 Reference value :  2.01223e-06
 Reference value :  2.01429e-06
 Reference value :  2.01525e-06
 Reference value :  2.01738e-06
 Reference value :  2.02398e-06
 Reference value :  2.03630e-06
 Reference value :  2.06933e-06
 Reference value :  2.09001e-06
 Reference value :  2.10491e-06
 Reference value :  2.11625e-06
 Reference value :  2.13356e-06
 Reference value :  2.16179e-06
 Reference value :  2.23764e-06
 Reference value :  2.25013e-06
 Reference value :  2.25020e-06
 Reference value :  2.25026e-06
 Reference value :  2.25069e-06
 Reference value :  2.25140e-06
 Reference value :  2.25230e-06
 Reference value :  2.25344e-06
 Reference value :  2.25527e-06
 Reference value :  2.25878e-06
 Reference value :  2.27191e-06
 Reference value :  2.48060e-06
 Reference value :  2.50003e-06
 Reference value :  2.50011e-06
 Reference value :  2.50022e-06
 Reference value :  2.50052e-06
 Reference value :  2.50119e-06
 Reference value :  2.50195e-06
 Reference value :  2.50282e-06
 Reference value :  2.50388e-06
 Reference value :  2.50536e-06
 Reference value :  2.50598e-06
 Reference value :  2.50749e-06
 Reference value :  2.51029e-06
 Reference value :  2.51681e-06
 Reference value :  2.54874e-06
 Reference value :  2.75010e-06
 Reference value :  2.75013e-06
 Reference value :  2.75021e-06
 Reference value :  2.75032e-06
 Reference value :  2.75069e-06
 Reference value :  2.75140e-06
 Reference value :  2.75229e-06
 Reference value :  2.75344e-06
 Reference value :  2.75448e-06
 Reference value :  2.75580e-06
 Reference value :  2.75752e-06
 Reference value :  2.75965e-06
 Reference value :  2.76746e-06
 Reference value :  2.82044e-06
 Reference value :  3.00001e-06
 Reference value :  3.00010e-06
 Reference value :  3.00016e-06
 Reference value :  3.00052e-06
 Reference value :  3.00119e-06
 Reference value :  3.00201e-06
 Reference value :  3.00342e-06
 Reference value :  3.00484e-06
 Reference value :  3.00664e-06
 Reference value :  3.00841e-06
 Reference value :  3.01016e-06
 Reference value :  3.01192e-06
 Reference value :  3.01357e-06
 Reference value :  3.01635e-06
 Reference value :  3.02087e-06
 Reference value :  3.03747e-06
 Reference value :  3.04382e-06
 Reference value :  3.04699e-06
 Reference value :  3.05347e-06
 Reference value :  3.06262e-06
 Reference value :  3.08459e-06
 Reference value :  3.11495e-06
 Reference value :  3.23561e-06
 Reference value :  3.25013e-06
 Reference value :  3.25020e-06
 Reference value :  3.25022e-06
 Reference value :  3.25045e-06
 Reference value :  3.25098e-06
 Reference value :  3.25140e-06
 Reference value :  3.25229e-06
 Reference value :  3.25299e-06
 Reference value :  3.25345e-06
 Reference value :  3.25461e-06
 Reference value :  3.25741e-06
 Reference value :  3.27242e-06
 Reference value :  3.50000e-06
 Reference value :  3.50010e-06
 Reference value :  3.50022e-06
 Reference value :  3.50083e-06
 Reference value :  3.50158e-06
 Reference value :  3.50290e-06
 Reference value :  3.50474e-06
 Reference value :  3.50616e-06
 Reference value :  3.50865e-06
 Reference value :  3.52064e-06
 Reference value :  3.75010e-06
 Reference value :  3.75020e-06
 Reference value :  3.75045e-06
 Reference value :  3.75140e-06
 Reference value :  3.75299e-06
 Reference value :  3.75397e-06
 Reference value :  3.75502e-06
 Reference value :  3.75660e-06
 Reference value :  3.78232e-06
 Reference value :  4.00001e-06
 Reference value :  4.00011e-06
 Reference value :  4.00034e-06
 Reference value :  4.00119e-06
 Reference value :  4.00201e-06
 Reference value :  4.00289e-06
 Reference value :  4.00396e-06
 Reference value :  4.00554e-06
 Reference value :  4.00997e-06
 Reference value :  4.01223e-06
 Reference value :  4.01524e-06
 Reference value :  4.01912e-06
 Reference value :  4.03624e-06
 Reference value :  4.04452e-06
 Reference value :  4.06118e-06
 Reference value :  4.07313e-06
 Reference value :  4.08442e-06
 Reference value :  4.10890e-06
 Reference value :  4.14745e-06
 Reference value :  4.15370e-06
 Reference value :  4.16734e-06
 Reference value :  4.18104e-06
 Reference value :  4.25010e-06
 Reference value :  4.25017e-06
 Reference value :  4.25022e-06
 Reference value :  4.25045e-06
 Reference value :  4.25098e-06
 Reference value :  4.25140e-06
 Reference value :  4.25229e-06
 Reference value :  4.25299e-06
 Reference value :  4.25345e-06
 Reference value :  4.25461e-06
 Reference value :  4.25741e-06
 Reference value :  4.26162e-06
 Reference value :  4.28671e-06
 Reference value :  4.43796e-06
 Reference value :  4.50003e-06
 Reference value :  4.50011e-06
 Reference value :  4.50034e-06
 Reference value :  4.50119e-06
 Reference value :  4.50201e-06
 Reference value :  4.50342e-06
 Reference value :  4.50553e-06
 Reference value :  4.50689e-06
 Reference value :  4.50865e-06
 Reference value :  4.51250e-06
 Reference value :  4.54776e-06
 Reference value :  4.75011e-06
 Reference value :  4.75020e-06
 Reference value :  4.75032e-06
 Reference value :  4.75098e-06
 Reference value :  4.75186e-06
 Reference value :  4.75299e-06
 Reference value :  4.75344e-06
 Reference value :  4.75448e-06
 Reference value :  4.75579e-06
 Reference value :  4.75824e-06
 Reference value :  4.76989e-06
 Reference value :  4.85774e-06
 Reference value :  5.00001e-06
 Reference value :  5.00007e-06
 Reference value :  5.00012e-06
 Reference value :  5.00034e-06
 Reference value :  5.00083e-06
 Reference value :  5.00158e-06
 Reference value :  5.00289e-06
 Reference value :  5.00450e-06
 Reference value :  5.00554e-06
 Reference value :  5.00997e-06
 Reference value :  5.01120e-06
 Reference value :  5.01323e-06
 Reference value :  5.01524e-06
 Reference value :  5.02074e-06
 Reference value :  5.03325e-06
 Reference value :  5.04546e-06
 Reference value :  5.04987e-06
 Reference value :  5.05930e-06
 Reference value :  5.07116e-06
 Reference value :  5.08373e-06
 Reference value :  5.10921e-06
 Reference value :  5.20037e-06
 Reference value :  5.25017e-06
 Reference value :  5.25026e-06
 Reference value :  5.25098e-06
 Reference value :  5.25186e-06
 Reference value :  5.25343e-06
 Reference value :  5.25526e-06
 Reference value :  5.26148e-06
 Reference value :  5.36892e-06
 Reference value :  5.50003e-06
 Reference value :  5.50011e-06
 Reference value :  5.50022e-06
 Reference value :  5.50083e-06
 Reference value :  5.50154e-06
 Reference value :  5.50282e-06
 Reference value :  5.50388e-06
 Reference value :  5.50536e-06
 Reference value :  5.50598e-06
 Reference value :  5.50749e-06
 Reference value :  5.50924e-06
 Reference value :  5.51143e-06
 Reference value :  5.53176e-06
 Reference value :  5.64406e-06
 Reference value :  5.75011e-06
 Reference value :  5.75017e-06
 Reference value :  5.75021e-06
 Reference value :  5.75032e-06
 Reference value :  5.75140e-06
 Reference value :  5.75229e-06
 Reference value :  5.75344e-06
 Reference value :  5.75448e-06
 Reference value :  5.75579e-06
 Reference value :  5.75836e-06
 Reference value :  5.76105e-06
 Reference value :  5.78980e-06
 Reference value :  5.99906e-06
 Reference value :  6.00001e-06
 Reference value :  6.00010e-06
 Reference value :  6.00022e-06
 Reference value :  6.00083e-06
 Reference value :  6.00158e-06
 Reference value :  6.00290e-06
 Reference value :  6.00390e-06
 Reference value :  6.00484e-06
 Reference value :  6.00664e-06
 Reference value :  6.00850e-06
 Reference value :  6.01016e-06
 Reference value :  6.01112e-06
 Reference value :  6.01188e-06
 Reference value :  6.01345e-06
 Reference value :  6.01517e-06
 Reference value :  6.01853e-06
 Reference value :  6.02602e-06
 Reference value :  6.04176e-06
 Reference value :  6.05301e-06
 Reference value :  6.06937e-06
 Reference value :  6.11077e-06
 Reference value :  6.25013e-06
 Reference value :  6.25032e-06
 Reference value :  6.25098e-06
 Reference value :  6.25186e-06
 Reference value :  6.25299e-06
 Reference value :  6.25398e-06
 Reference value :  6.25523e-06
 Reference value :  6.26161e-06
 Reference value :  6.31522e-06
 Reference value :  6.50001e-06
 Reference value :  6.50010e-06
 Reference value :  6.50022e-06
 Reference value :  6.50083e-06
 Reference value :  6.50158e-06
 Reference value :  6.50242e-06
 Reference value :  6.50342e-06
 Reference value :  6.50474e-06
 Reference value :  6.50616e-06
 Reference value :  6.50771e-06
 Reference value :  6.51087e-06
 Reference value :  6.54713e-06
 Reference value :  6.75011e-06
 Reference value :  6.75020e-06
 Reference value :  6.75032e-06
 Reference value :  6.75139e-06
 Reference value :  6.75299e-06
 Reference value :  6.75448e-06
 Reference value :  6.75823e-06
 Reference value :  6.95662e-06
 Reference value :  7.00007e-06
 Reference value :  7.00016e-06
 Reference value :  7.00083e-06
 Reference value :  7.00201e-06
 Reference value :  7.00341e-06
 Reference value :  7.00500e-06
 Reference value :  7.00847e-06
 Reference value :  7.01120e-06
 Reference value :  7.01322e-06
 Reference value :  7.01524e-06
 Reference value :  7.01911e-06
 Reference value :  7.02874e-06
 Reference value :  7.03941e-06
 Reference value :  7.05120e-06
 Reference value :  7.08440e-06
 Reference value :  7.22044e-06
 Reference value :  7.25017e-06
 Reference value :  7.25026e-06
 Reference value :  7.25069e-06
 Reference value :  7.25140e-06
 Reference value :  7.25299e-06
 Reference value :  7.25455e-06
 Reference value :  7.25731e-06
 Reference value :  7.27179e-06
 Reference value :  7.47846e-06
 Reference value :  7.50007e-06
 Reference value :  7.50012e-06
 Reference value :  7.50034e-06
 Reference value :  7.50083e-06
 Reference value :  7.50154e-06
 Reference value :  7.50282e-06
 Reference value :  7.50388e-06
 Reference value :  7.50536e-06
 Reference value :  7.50664e-06
 Reference value :  7.50839e-06
 Reference value :  7.51028e-06
 Reference value :  7.51359e-06
 Reference value :  7.53162e-06
 Reference value :  7.57933e-06
 Reference value :  7.75011e-06
 Reference value :  7.75020e-06
 Reference value :  7.75032e-06
 Reference value :  7.75098e-06
 Reference value :  7.75186e-06
 Reference value :  7.75344e-06
 Reference value :  7.75501e-06
 Reference value :  7.75660e-06
 Reference value :  7.75962e-06
 Reference value :  7.77473e-06
 Reference value :  7.99689e-06
 Reference value :  8.00003e-06
 Reference value :  8.00011e-06
 Reference value :  8.00022e-06
 Reference value :  8.00052e-06
 Reference value :  8.00119e-06
 Reference value :  8.00201e-06
 Reference value :  8.00290e-06
 Reference value :  8.00389e-06
 Reference value :  8.00484e-06
 Reference value :  8.00592e-06
 Reference value :  8.00743e-06
 Reference value :  8.00902e-06
 Reference value :  8.01081e-06
 Reference value :  8.01670e-06
 Reference value :  8.03167e-06
 Reference value :  8.07630e-06
 Reference value :  8.10433e-06
 Reference value :  8.13679e-06
 Reference value :  8.15991e-06
 Reference value :  8.21311e-06
 Reference value :  8.25011e-06
 Reference value :  8.25017e-06
 Reference value :  8.25021e-06
 Reference value :  8.25032e-06
 Reference value :  8.25070e-06
 Reference value :  8.25139e-06
 Reference value :  8.25298e-06
 Reference value :  8.25535e-06
 Reference value :  8.25768e-06
 Reference value :  8.26628e-06
 Reference value :  8.32175e-06
 Reference value :  8.50000e-06
 Reference value :  8.50000e-06
 Reference value :  8.50000e-06
 Reference value :  8.50001e-06
 Reference value :  8.50008e-06
 Reference value :  8.50011e-06
 Reference value :  8.50018e-06
 Reference value :  8.50044e-06
 Reference value :  8.50115e-06
 Reference value :  8.50197e-06
 Reference value :  8.50292e-06
 Reference value :  8.50401e-06
 Reference value :  8.50446e-06
 Reference value :  8.50554e-06
 Reference value :  8.50743e-06
 Reference value :  8.51731e-06
 Reference value :  8.52238e-06
 Reference value :  8.52625e-06
 Reference value :  8.52914e-06
 Reference value :  8.53112e-06
 Reference value :  8.53282e-06
 Reference value :  8.53577e-06
 Reference value :  8.53936e-06
 Reference value :  8.54585e-06
 Reference value :  8.55244e-06
 Reference value :  8.56647e-06
 Reference value :  8.59905e-06
 Reference value :  8.68044e-06
 Reference value :  8.75011e-06
 Reference value :  8.75020e-06
 Reference value :  8.75026e-06
 Reference value :  8.75069e-06
 Reference value :  8.75139e-06
 Reference value :  8.75229e-06
 Reference value :  8.75343e-06
 Reference value :  8.75456e-06
 Reference value :  8.75593e-06
 Reference value :  8.76146e-06
 Reference value :  8.78539e-06
 Reference value :  8.85157e-06
 Reference value :  8.88871e-06
 Reference value :  8.91592e-06
 Reference value :  8.93187e-06
 Reference value :  8.94487e-06
 Reference value :  8.98592e-06
 Reference value :  9.00003e-06
 Reference value :  9.00011e-06
 Reference value :  9.00022e-06
 Reference value :  9.00052e-06
 Reference value :  9.00119e-06
 Reference value :  9.00194e-06
 Reference value :  9.00280e-06
 Reference value :  9.00386e-06
 Reference value :  9.00532e-06
 Reference value :  9.00642e-06
 Reference value :  9.00877e-06
 Reference value :  9.01120e-06
 Reference value :  9.01243e-06
 Reference value :  9.01545e-06
 Reference value :  9.02554e-06
 Reference value :  9.07883e-06
 Reference value :  9.25011e-06
 Reference value :  9.25017e-06
 Reference value :  9.25022e-06
 Reference value :  9.25045e-06
 Reference value :  9.25098e-06
 Reference value :  9.25186e-06
 Reference value :  9.25298e-06
 Reference value :  9.25395e-06
 Reference value :  9.25500e-06
 Reference value :  9.25655e-06
 Reference value :  9.25961e-06
 Reference value :  9.26664e-06
 Reference value :  9.34992e-06
 Reference value :  9.50003e-06
 Reference value :  9.50011e-06
 Reference value :  9.50022e-06
 Reference value :  9.50083e-06
 Reference value :  9.50157e-06
 Reference value :  9.50241e-06
 Reference value :  9.50289e-06
 Reference value :  9.50388e-06
 Reference value :  9.50482e-06
 Reference value :  9.50658e-06
 Reference value :  9.50842e-06
 Reference value :  9.51025e-06
 Reference value :  9.51198e-06
 Reference value :  9.51357e-06
 Reference value :  9.51531e-06
 Reference value :  9.51726e-06
 Reference value :  9.52988e-06
 Reference value :  9.62958e-06
 Reference value :  9.68860e-06
 Reference value :  9.75010e-06
 Reference value :  9.75021e-06
 Reference value :  9.75098e-06
 Reference value :  9.75229e-06
 Reference value :  9.75345e-06
 Reference value :  9.75460e-06
 Reference value :  9.75740e-06
 Reference value :  9.78661e-06
 Reference value :  1.00000e-05
 Reference value :  1.00001e-05
 Reference value :  1.00002e-05
 Reference value :  1.00005e-05
 Reference value :  1.00016e-05
 Reference value :  1.00029e-05
 Reference value :  1.00040e-05
 Reference value :  1.00055e-05
 Reference value :  1.00069e-05
 Reference value :  1.00086e-05
 Reference value :  1.00125e-05
 Reference value :  1.00295e-05
 Reference value :  1.02501e-05
 Reference value :  1.02502e-05
 Reference value :  1.02502e-05
 Reference value :  1.02504e-05
 Reference value :  1.02514e-05
 Reference value :  1.02523e-05
 Reference value :  1.02534e-05
 Reference value :  1.02545e-05
 Reference value :  1.02558e-05
 Reference value :  1.02603e-05
 Reference value :  1.02823e-05
 Reference value :  1.05000e-05
 Reference value :  1.05001e-05
 Reference value :  1.05001e-05
 Reference value :  1.05003e-05
 Reference value :  1.05008e-05
 Reference value :  1.05016e-05
 Reference value :  1.05029e-05
 Reference value :  1.05040e-05
 Reference value :  1.05050e-05
 Reference value :  1.05071e-05
 Reference value :  1.05112e-05
 Reference value :  1.05132e-05
 Reference value :  1.05152e-05
 Reference value :  1.05192e-05
 Reference value :  1.05365e-05
 Reference value :  1.05942e-05
 Reference value :  1.06193e-05
 Reference value :  1.06361e-05
 Reference value :  1.06778e-05
 Reference value :  1.07501e-05
 Reference value :  1.07502e-05
 Reference value :  1.07504e-05
 Reference value :  1.07510e-05
 Reference value :  1.07514e-05
 Reference value :  1.07530e-05
 Reference value :  1.07539e-05
 Reference value :  1.07553e-05
 Reference value :  1.07588e-05
 Reference value :  1.07718e-05
 Reference value :  1.08688e-05
 Reference value :  1.10000e-05
 Reference value :  1.10001e-05
 Reference value :  1.10005e-05
 Reference value :  1.10015e-05
 Reference value :  1.10028e-05
 Reference value :  1.10039e-05
 Reference value :  1.10054e-05
 Reference value :  1.10060e-05
 Reference value :  1.10075e-05
 Reference value :  1.10103e-05
 Reference value :  1.10221e-05
 Reference value :  1.11426e-05
 Reference value :  1.12502e-05
 Reference value :  1.12504e-05
 Reference value :  1.12514e-05
 Reference value :  1.12530e-05
 Reference value :  1.12540e-05
 Reference value :  1.12550e-05
 Reference value :  1.12566e-05
 Reference value :  1.12584e-05
 Reference value :  1.12637e-05
 Reference value :  1.13199e-05
 Reference value :  1.15000e-05
 Reference value :  1.15001e-05
 Reference value :  1.15002e-05
 Reference value :  1.15005e-05
 Reference value :  1.15012e-05
 Reference value :  1.15020e-05
 Reference value :  1.15029e-05
 Reference value :  1.15039e-05
 Reference value :  1.15048e-05
 Reference value :  1.15066e-05
 Reference value :  1.15084e-05
 Reference value :  1.15102e-05
 Reference value :  1.15119e-05
 Reference value :  1.15145e-05
 Reference value :  1.15177e-05
 Reference value :  1.15306e-05
 Reference value :  1.15423e-05
 Reference value :  1.15454e-05
 Reference value :  1.15514e-05
 Reference value :  1.15706e-05
 Reference value :  1.15967e-05
 Reference value :  1.17362e-05
 Reference value :  1.17501e-05
 Reference value :  1.17502e-05
 Reference value :  1.17503e-05
 Reference value :  1.17507e-05
 Reference value :  1.17514e-05
 Reference value :  1.17523e-05
 Reference value :  1.17535e-05
 Reference value :  1.17546e-05
 Reference value :  1.17574e-05
 Reference value :  1.17724e-05
 Reference value :  1.19874e-05
 Reference value :  1.20000e-05
 Reference value :  1.20001e-05
 Reference value :  1.20002e-05
 Reference value :  1.20008e-05
 Reference value :  1.20016e-05
 Reference value :  1.20020e-05
 Reference value :  1.20034e-05
 Reference value :  1.20062e-05
 Reference value :  1.20087e-05
 Reference value :  1.20205e-05
 Reference value :  1.22501e-05
 Reference value :  1.22502e-05
 Reference value :  1.22503e-05
 Reference value :  1.22510e-05
 Reference value :  1.22523e-05
 Reference value :  1.22534e-05
 Reference value :  1.22545e-05
 Reference value :  1.22558e-05
 Reference value :  1.22636e-05
 Reference value :  1.23070e-05
 Reference value :  1.25000e-05
 Reference value :  1.25001e-05
 Reference value :  1.25001e-05
 Reference value :  1.25003e-05
 Reference value :  1.25008e-05
 Reference value :  1.25016e-05
 Reference value :  1.25029e-05
 Reference value :  1.25045e-05
 Reference value :  1.25055e-05
 Reference value :  1.25100e-05
 Reference value :  1.25122e-05
 Reference value :  1.25152e-05
 Reference value :  1.25207e-05
 Reference value :  1.25360e-05
 Reference value :  1.25440e-05
 Reference value :  1.25594e-05
 Reference value :  1.25705e-05
 Reference value :  1.25819e-05
 Reference value :  1.26128e-05
 Reference value :  1.26366e-05
 Reference value :  1.26486e-05
 Reference value :  1.26665e-05
 Reference value :  1.27501e-05
 Reference value :  1.27502e-05
 Reference value :  1.27503e-05
 Reference value :  1.27507e-05
 Reference value :  1.27514e-05
 Reference value :  1.27530e-05
 Reference value :  1.27540e-05
 Reference value :  1.27552e-05
 Reference value :  1.27616e-05
 Reference value :  1.28728e-05
 Reference value :  1.30000e-05
 Reference value :  1.30001e-05
 Reference value :  1.30003e-05
 Reference value :  1.30012e-05
 Reference value :  1.30020e-05
 Reference value :  1.30029e-05
 Reference value :  1.30047e-05
 Reference value :  1.30062e-05
 Reference value :  1.30087e-05
 Reference value :  1.30155e-05
 Reference value :  1.30824e-05
 Reference value :  1.32501e-05
 Reference value :  1.32502e-05
 Reference value :  1.32507e-05
 Reference value :  1.32514e-05
 Reference value :  1.32530e-05
 Reference value :  1.32540e-05
 Reference value :  1.32550e-05
 Reference value :  1.32566e-05
 Reference value :  1.32823e-05
 Reference value :  1.35000e-05
 Reference value :  1.35001e-05
 Reference value :  1.35002e-05
 Reference value :  1.35005e-05
 Reference value :  1.35012e-05
 Reference value :  1.35020e-05
 Reference value :  1.35029e-05
 Reference value :  1.35040e-05
 Reference value :  1.35050e-05
 Reference value :  1.35071e-05
 Reference value :  1.35100e-05
 Reference value :  1.35112e-05
 Reference value :  1.35132e-05
 Reference value :  1.35152e-05
 Reference value :  1.35191e-05
 Reference value :  1.35289e-05
 Reference value :  1.35400e-05
 Reference value :  1.35508e-05
 Reference value :  1.35607e-05
 Reference value :  1.35787e-05
 Reference value :  1.36330e-05
 Reference value :  1.37501e-05
 Reference value :  1.37502e-05
 Reference value :  1.37502e-05
 Reference value :  1.37504e-05
 Reference value :  1.37514e-05
 Reference value :  1.37530e-05
 Reference value :  1.37539e-05
 Reference value :  1.37553e-05
 Reference value :  1.37588e-05
 Reference value :  1.37719e-05
 Reference value :  1.38688e-05
 Reference value :  1.40000e-05
 Reference value :  1.40001e-05
 Reference value :  1.40002e-05
 Reference value :  1.40005e-05
 Reference value :  1.40012e-05
 Reference value :  1.40015e-05
 Reference value :  1.40023e-05
 Reference value :  1.40028e-05
 Reference value :  1.40039e-05
 Reference value :  1.40054e-05
 Reference value :  1.40060e-05
 Reference value :  1.40075e-05
 Reference value :  1.40092e-05
 Reference value :  1.40114e-05
 Reference value :  1.40221e-05
 Reference value :  1.40474e-05
 Reference value :  1.42501e-05
 Reference value :  1.42502e-05
 Reference value :  1.42503e-05
 Reference value :  1.42507e-05
 Reference value :  1.42514e-05
 Reference value :  1.42523e-05
 Reference value :  1.42530e-05
 Reference value :  1.42534e-05
 Reference value :  1.42545e-05
 Reference value :  1.42558e-05
 Reference value :  1.42575e-05
 Reference value :  1.42596e-05
 Reference value :  1.42674e-05
 Reference value :  1.43197e-05
 Reference value :  1.45000e-05
 Reference value :  1.45000e-05
 Reference value :  1.45001e-05
 Reference value :  1.45002e-05
 Reference value :  1.45003e-05
 Reference value :  1.45008e-05
 Reference value :  1.45016e-05
 Reference value :  1.45024e-05
 Reference value :  1.45029e-05
 Reference value :  1.45039e-05
 Reference value :  1.45048e-05
 Reference value :  1.45059e-05
 Reference value :  1.45076e-05
 Reference value :  1.45093e-05
 Reference value :  1.45102e-05
 Reference value :  1.45119e-05
 Reference value :  1.45135e-05
 Reference value :  1.45152e-05
 Reference value :  1.45171e-05
 Reference value :  1.45201e-05
 Reference value :  1.45309e-05
 Reference value :  1.45420e-05
 Reference value :  1.45460e-05
 Reference value :  1.45570e-05
 Reference value :  1.46027e-05
 Reference value :  1.47501e-05
 Reference value :  1.47502e-05
 Reference value :  1.47507e-05
 Reference value :  1.47514e-05
 Reference value :  1.47530e-05
 Reference value :  1.47540e-05
 Reference value :  1.47574e-05
 Reference value :  1.48151e-05
 Reference value :  1.50000e-05
 Reference value :  1.50002e-05
 Reference value :  1.50008e-05
 Reference value :  1.50020e-05
 Reference value :  1.50034e-05
 Reference value :  1.50062e-05
 Reference value :  1.50077e-05
 Reference value :  1.50096e-05
 Reference value :  1.50205e-05
 Reference value :  1.52501e-05
 Reference value :  1.52502e-05
 Reference value :  1.52503e-05
 Reference value :  1.52510e-05
 Reference value :  1.52519e-05
 Reference value :  1.52534e-05
 Reference value :  1.52550e-05
 Reference value :  1.52582e-05
 Reference value :  1.53070e-05
 Reference value :  1.55007e-05
 Reference value :  1.55030e-05
 Reference value :  1.55044e-05
 Reference value :  1.55056e-05
 Reference value :  1.55093e-05
 Reference value :  1.55130e-05
 Reference value :  1.55160e-05
 Reference value :  1.55224e-05
 Reference value :  1.55397e-05
 Reference value :  1.55546e-05
 Reference value :  1.55705e-05
 Reference value :  1.56357e-05
 Reference value :  1.57502e-05
 Reference value :  1.57503e-05
 Reference value :  1.57514e-05
 Reference value :  1.57530e-05
 Reference value :  1.57545e-05
 Reference value :  1.57615e-05
 Reference value :  1.58116e-05
 Reference value :  1.60000e-05
 Reference value :  1.60001e-05
 Reference value :  1.60002e-05
 Reference value :  1.60008e-05
 Reference value :  1.60015e-05
 Reference value :  1.60028e-05
 Reference value :  1.60046e-05
 Reference value :  1.60060e-05
 Reference value :  1.60075e-05
 Reference value :  1.60103e-05
 Reference value :  1.60222e-05
 Reference value :  1.61428e-05
 Reference value :  1.62502e-05
 Reference value :  1.62503e-05
 Reference value :  1.62507e-05
 Reference value :  1.62519e-05
 Reference value :  1.62534e-05
 Reference value :  1.62550e-05
 Reference value :  1.62566e-05
 Reference value :  1.62596e-05
 Reference value :  1.62748e-05
 Reference value :  1.64977e-05
 Reference value :  1.65000e-05
 Reference value :  1.65002e-05
 Reference value :  1.65008e-05
 Reference value :  1.65016e-05
 Reference value :  1.65024e-05
 Reference value :  1.65034e-05
 Reference value :  1.65044e-05
 Reference value :  1.65053e-05
 Reference value :  1.65082e-05
 Reference value :  1.65125e-05
 Reference value :  1.65281e-05
 Reference value :  1.65452e-05
 Reference value :  1.65539e-05
 Reference value :  1.65654e-05
 Reference value :  1.65947e-05
 Reference value :  1.66474e-05
 Reference value :  1.67501e-05
 Reference value :  1.67502e-05
 Reference value :  1.67503e-05
 Reference value :  1.67510e-05
 Reference value :  1.67519e-05
 Reference value :  1.67536e-05
 Reference value :  1.67562e-05
 Reference value :  1.67663e-05
 Reference value :  1.68822e-05
 Reference value :  1.70000e-05
 Reference value :  1.70000e-05
 Reference value :  1.70000e-05
 Reference value :  1.70001e-05
 Reference value :  1.70002e-05
 Reference value :  1.70003e-05
 Reference value :  1.70007e-05
 Reference value :  1.70020e-05
 Reference value :  1.70029e-05
 Reference value :  1.70040e-05
 Reference value :  1.70045e-05
 Reference value :  1.70055e-05
 Reference value :  1.70120e-05
 Reference value :  1.70224e-05
 Reference value :  1.70263e-05
 Reference value :  1.70292e-05
 Reference value :  1.70311e-05
 Reference value :  1.70329e-05
 Reference value :  1.70358e-05
 Reference value :  1.70399e-05
 Reference value :  1.70485e-05
 Reference value :  1.70675e-05
 Reference value :  1.71286e-05
 Reference value :  1.72355e-05
 Reference value :  1.72502e-05
 Reference value :  1.72503e-05
 Reference value :  1.72507e-05
 Reference value :  1.72514e-05
 Reference value :  1.72523e-05
 Reference value :  1.72534e-05
 Reference value :  1.72546e-05
 Reference value :  1.72573e-05
 Reference value :  1.72717e-05
 Reference value :  1.73518e-05
 Reference value :  1.73902e-05
 Reference value :  1.74177e-05
 Reference value :  1.74341e-05
 Reference value :  1.74476e-05
 Reference value :  1.74759e-05
 Reference value :  1.75000e-05
 Reference value :  1.75001e-05
 Reference value :  1.75001e-05
 Reference value :  1.75002e-05
 Reference value :  1.75005e-05
 Reference value :  1.75012e-05
 Reference value :  1.75015e-05
 Reference value :  1.75023e-05
 Reference value :  1.75028e-05
 Reference value :  1.75039e-05
 Reference value :  1.75053e-05
 Reference value :  1.75064e-05
 Reference value :  1.75088e-05
 Reference value :  1.75112e-05
 Reference value :  1.75124e-05
 Reference value :  1.75155e-05
 Reference value :  1.75335e-05
 Reference value :  1.76392e-05
 Reference value :  1.77501e-05
 Reference value :  1.77502e-05
 Reference value :  1.77502e-05
 Reference value :  1.77504e-05
 Reference value :  1.77514e-05
 Reference value :  1.77523e-05
 Reference value :  1.77534e-05
 Reference value :  1.77545e-05
 Reference value :  1.77558e-05
 Reference value :  1.77573e-05
 Reference value :  1.77609e-05
 Reference value :  1.77729e-05
 Reference value :  1.79367e-05
 Reference value :  1.80011e-05
 Reference value :  1.80043e-05
 Reference value :  1.80062e-05
 Reference value :  1.80090e-05
 Reference value :  1.80108e-05
 Reference value :  1.80124e-05
 Reference value :  1.80138e-05
 Reference value :  1.80163e-05
 Reference value :  1.80202e-05
 Reference value :  1.80694e-05
 Reference value :  1.81478e-05
 Reference value :  1.81752e-05
 Reference value :  1.82133e-05
 Reference value :  1.82501e-05
 Reference value :  1.82503e-05
 Reference value :  1.82510e-05
 Reference value :  1.82519e-05
 Reference value :  1.82529e-05
 Reference value :  1.82539e-05
 Reference value :  1.82549e-05
 Reference value :  1.82581e-05
 Reference value :  1.82694e-05
 Reference value :  1.84518e-05
 Reference value :  1.85000e-05
 Reference value :  1.85001e-05
 Reference value :  1.85002e-05
 Reference value :  1.85008e-05
 Reference value :  1.85016e-05
 Reference value :  1.85029e-05
 Reference value :  1.85047e-05
 Reference value :  1.85062e-05
 Reference value :  1.85077e-05
 Reference value :  1.85109e-05
 Reference value :  1.85204e-05
 Reference value :  1.85817e-05
 Reference value :  1.87501e-05
 Reference value :  1.87502e-05
 Reference value :  1.87504e-05
 Reference value :  1.87514e-05
 Reference value :  1.87530e-05
 Reference value :  1.87540e-05
 Reference value :  1.87550e-05
 Reference value :  1.87582e-05
 Reference value :  1.88079e-05
 Reference value :  1.90000e-05
 Reference value :  1.90001e-05
 Reference value :  1.90002e-05
 Reference value :  1.90008e-05
 Reference value :  1.90016e-05
 Reference value :  1.90029e-05
 Reference value :  1.90045e-05
 Reference value :  1.90055e-05
 Reference value :  1.90085e-05
 Reference value :  1.90112e-05
 Reference value :  1.90132e-05
 Reference value :  1.90152e-05
 Reference value :  1.90174e-05
 Reference value :  1.90240e-05
 Reference value :  1.90503e-05
 Reference value :  1.90949e-05
 Reference value :  1.91212e-05
 Reference value :  1.91387e-05
 Reference value :  1.92045e-05
 Reference value :  1.92501e-05
 Reference value :  1.92502e-05
 Reference value :  1.92507e-05
 Reference value :  1.92514e-05
 Reference value :  1.92523e-05
 Reference value :  1.92534e-05
 Reference value :  1.92546e-05
 Reference value :  1.92559e-05
 Reference value :  1.92588e-05
 Reference value :  1.92718e-05
 Reference value :  1.93687e-05
 Reference value :  1.95000e-05
 Reference value :  1.95004e-05
 Reference value :  1.95011e-05
 Reference value :  1.95014e-05
 Reference value :  1.95023e-05
 Reference value :  1.95028e-05
 Reference value :  1.95033e-05
 Reference value :  1.95047e-05
 Reference value :  1.95061e-05
 Reference value :  1.95076e-05
 Reference value :  1.95094e-05
 Reference value :  1.95149e-05
 Reference value :  1.95263e-05
 Reference value :  1.95674e-05
 Reference value :  1.97319e-05
 Reference value :  1.97501e-05
 Reference value :  1.97502e-05
 Reference value :  1.97502e-05
 Reference value :  1.97504e-05
 Reference value :  1.97510e-05
 Reference value :  1.97519e-05
 Reference value :  1.97530e-05
 Reference value :  1.97534e-05
 Reference value :  1.97545e-05
 Reference value :  1.97558e-05
 Reference value :  1.97575e-05
 Reference value :  1.97596e-05
 Reference value :  1.97674e-05
 Reference value :  1.98791e-05
 Reference value :  2.00000e-05
 Reference value :  2.00001e-05
 Reference value :  2.00003e-05
 Reference value :  2.00008e-05
 Reference value :  2.00016e-05
 Reference value :  2.00024e-05
 Reference value :  2.00029e-05
 Reference value :  2.00039e-05
 Reference value :  2.00044e-05
 Reference value :  2.00048e-05
 Reference value :  2.00059e-05
 Reference value :  2.00076e-05
 Reference value :  2.00093e-05
 Reference value :  2.00102e-05
 Reference value :  2.00119e-05
 Reference value :  2.00136e-05
 Reference value :  2.00155e-05
 Reference value :  2.00177e-05
 Reference value :  2.00299e-05
 Reference value :  2.00442e-05
 Reference value :  2.00531e-05
 Reference value :  2.00736e-05
 Reference value :  2.01366e-05
 Reference value :  2.02501e-05
 Reference value :  2.02502e-05
 Reference value :  2.02504e-05
 Reference value :  2.02514e-05
 Reference value :  2.02530e-05
 Reference value :  2.02535e-05
 Reference value :  2.02546e-05
 Reference value :  2.02560e-05
 Reference value :  2.02616e-05
 Reference value :  2.02867e-05
 Reference value :  2.04874e-05
 Reference value :  2.05002e-05
 Reference value :  2.05009e-05
 Reference value :  2.05015e-05
 Reference value :  2.05023e-05
 Reference value :  2.05033e-05
 Reference value :  2.05046e-05
 Reference value :  2.05060e-05
 Reference value :  2.05074e-05
 Reference value :  2.05102e-05
 Reference value :  2.05165e-05
 Reference value :  2.05964e-05
 Reference value :  2.07501e-05
 Reference value :  2.07502e-05
 Reference value :  2.07503e-05
 Reference value :  2.07510e-05
 Reference value :  2.07519e-05
 Reference value :  2.07534e-05
 Reference value :  2.07545e-05
 Reference value :  2.07566e-05
 Reference value :  2.07697e-05
 Reference value :  2.09543e-05
 Reference value :  2.10000e-05
 Reference value :  2.10001e-05
 Reference value :  2.10002e-05
 Reference value :  2.10005e-05
 Reference value :  2.10016e-05
 Reference value :  2.10029e-05
 Reference value :  2.10040e-05
 Reference value :  2.10050e-05
 Reference value :  2.10071e-05
 Reference value :  2.10100e-05
 Reference value :  2.10112e-05
 Reference value :  2.10132e-05
 Reference value :  2.10152e-05
 Reference value :  2.10191e-05
 Reference value :  2.10286e-05
 Reference value :  2.10439e-05
 Reference value :  2.10590e-05
 Reference value :  2.10645e-05
 Reference value :  2.10757e-05
 Reference value :  2.10956e-05
 Reference value :  2.11229e-05
 Reference value :  2.11304e-05
 Reference value :  2.11405e-05
 Reference value :  2.11744e-05
 Reference value :  2.12501e-05
 Reference value :  2.12502e-05
 Reference value :  2.12503e-05
 Reference value :  2.12504e-05
 Reference value :  2.12510e-05
 Reference value :  2.12519e-05
 Reference value :  2.12530e-05
 Reference value :  2.12546e-05
 Reference value :  2.12616e-05
 Reference value :  2.13154e-05
 Reference value :  2.15000e-05
 Reference value :  2.15001e-05
 Reference value :  2.15003e-05
 Reference value :  2.15008e-05
 Reference value :  2.15016e-05
 Reference value :  2.15024e-05
 Reference value :  2.15034e-05
 Reference value :  2.15055e-05
 Reference value :  2.15069e-05
 Reference value :  2.15087e-05
 Reference value :  2.15155e-05
 Reference value :  2.16526e-05
 Reference value :  2.17502e-05
 Reference value :  2.17503e-05
 Reference value :  2.17507e-05
 Reference value :  2.17514e-05
 Reference value :  2.17523e-05
 Reference value :  2.17530e-05
 Reference value :  2.17534e-05
 Reference value :  2.17545e-05
 Reference value :  2.17550e-05
 Reference value :  2.17558e-05
 Reference value :  2.17582e-05
 Reference value :  2.17698e-05
 Reference value :  2.18073e-05
 Reference value :  2.20000e-05
 Reference value :  2.20007e-05
 Reference value :  2.20029e-05
 Reference value :  2.20043e-05
 Reference value :  2.20055e-05
 Reference value :  2.20061e-05
 Reference value :  2.20078e-05
 Reference value :  2.20092e-05
 Reference value :  2.20119e-05
 Reference value :  2.20130e-05
 Reference value :  2.20150e-05
 Reference value :  2.20161e-05
 Reference value :  2.20185e-05
 Reference value :  2.20226e-05
 Reference value :  2.20325e-05
 Reference value :  2.20439e-05
 Reference value :  2.20569e-05
 Reference value :  2.20692e-05
 Reference value :  2.20819e-05
 Reference value :  2.21213e-05
 Reference value :  2.22433e-05
 Reference value :  2.22501e-05
 Reference value :  2.22502e-05
 Reference value :  2.22502e-05
 Reference value :  2.22503e-05
 Reference value :  2.22510e-05
 Reference value :  2.22514e-05
 Reference value :  2.22529e-05
 Reference value :  2.22539e-05
 Reference value :  2.22559e-05
 Reference value :  2.22648e-05
 Reference value :  2.24705e-05
 Reference value :  2.25000e-05
 Reference value :  2.25001e-05
 Reference value :  2.25002e-05
 Reference value :  2.25008e-05
 Reference value :  2.25015e-05
 Reference value :  2.25028e-05
 Reference value :  2.25046e-05
 Reference value :  2.25060e-05
 Reference value :  2.25075e-05
 Reference value :  2.25092e-05
 Reference value :  2.25114e-05
 Reference value :  2.25317e-05
 Reference value :  2.26433e-05
 Reference value :  2.27501e-05
 Reference value :  2.27502e-05
 Reference value :  2.27503e-05
 Reference value :  2.27510e-05
 Reference value :  2.27514e-05
 Reference value :  2.27530e-05
 Reference value :  2.27534e-05
 Reference value :  2.27545e-05
 Reference value :  2.27558e-05
 Reference value :  2.27575e-05
 Reference value :  2.27596e-05
 Reference value :  2.27636e-05
 Reference value :  2.27897e-05
 Reference value :  2.29979e-05
 Reference value :  2.30000e-05
 Reference value :  2.30001e-05
 Reference value :  2.30002e-05
 Reference value :  2.30003e-05
 Reference value :  2.30009e-05
 Reference value :  2.30016e-05
 Reference value :  2.30024e-05
 Reference value :  2.30029e-05
 Reference value :  2.30039e-05
 Reference value :  2.30050e-05
 Reference value :  2.30063e-05
 Reference value :  2.30083e-05
 Reference value :  2.30101e-05
 Reference value :  2.30120e-05
 Reference value :  2.30137e-05
 Reference value :  2.30155e-05
 Reference value :  2.30176e-05
 Reference value :  2.30213e-05
 Reference value :  2.30280e-05
 Reference value :  2.30316e-05
 Reference value :  2.30350e-05
 Reference value :  2.30423e-05
 Reference value :  2.30556e-05
 Reference value :  2.31704e-05
 Reference value :  2.32501e-05
 Reference value :  2.32502e-05
 Reference value :  2.32503e-05
 Reference value :  2.32507e-05
 Reference value :  2.32514e-05
 Reference value :  2.32523e-05
 Reference value :  2.32535e-05
 Reference value :  2.32546e-05
 Reference value :  2.32574e-05
 Reference value :  2.32723e-05
 Reference value :  2.33722e-05
 Reference value :  2.35000e-05
 Reference value :  2.35001e-05
 Reference value :  2.35001e-05
 Reference value :  2.35002e-05
 Reference value :  2.35005e-05
 Reference value :  2.35012e-05
 Reference value :  2.35016e-05
 Reference value :  2.35024e-05
 Reference value :  2.35029e-05
 Reference value :  2.35040e-05
 Reference value :  2.35055e-05
 Reference value :  2.35062e-05
 Reference value :  2.35077e-05
 Reference value :  2.35096e-05
 Reference value :  2.35155e-05
 Reference value :  2.35476e-05
 Reference value :  2.37501e-05
 Reference value :  2.37502e-05
 Reference value :  2.37502e-05
 Reference value :  2.37504e-05
 Reference value :  2.37514e-05
 Reference value :  2.37530e-05
 Reference value :  2.37534e-05
 Reference value :  2.37545e-05
 Reference value :  2.37558e-05
 Reference value :  2.37636e-05
 Reference value :  2.38073e-05
 Reference value :  2.40000e-05
 Reference value :  2.40001e-05
 Reference value :  2.40001e-05
 Reference value :  2.40003e-05
 Reference value :  2.40008e-05
 Reference value :  2.40016e-05
 Reference value :  2.40024e-05
 Reference value :  2.40034e-05
 Reference value :  2.40045e-05
 Reference value :  2.40055e-05
 Reference value :  2.40085e-05
 Reference value :  2.40112e-05
 Reference value :  2.40132e-05
 Reference value :  2.40152e-05
 Reference value :  2.40191e-05
 Reference value :  2.40475e-05
 Reference value :  2.41010e-05
 Reference value :  2.41264e-05
 Reference value :  2.42059e-05
 Reference value :  2.42501e-05
 Reference value :  2.42502e-05
 Reference value :  2.42507e-05
 Reference value :  2.42514e-05
 Reference value :  2.42530e-05
 Reference value :  2.42539e-05
 Reference value :  2.42559e-05
 Reference value :  2.42649e-05
 Reference value :  2.43675e-05
 Reference value :  2.45000e-05
 Reference value :  2.45001e-05
 Reference value :  2.45002e-05
 Reference value :  2.45008e-05
 Reference value :  2.45015e-05
 Reference value :  2.45028e-05
 Reference value :  2.45039e-05
 Reference value :  2.45060e-05
 Reference value :  2.45075e-05
 Reference value :  2.45103e-05
 Reference value :  2.45222e-05
 Reference value :  2.46429e-05
 Reference value :  2.47501e-05
 Reference value :  2.47501e-05
 Reference value :  2.47502e-05
 Reference value :  2.47504e-05
 Reference value :  2.47514e-05
 Reference value :  2.47530e-05
 Reference value :  2.47540e-05
 Reference value :  2.47550e-05
 Reference value :  2.47566e-05
 Reference value :  2.47596e-05
 Reference value :  2.47747e-05
 Reference value :  2.49969e-05
 Reference value :  2.50000e-05
 Reference value :  2.50001e-05
 Reference value :  2.50002e-05
 Reference value :  2.50008e-05
 Reference value :  2.50016e-05
 Reference value :  2.50029e-05
 Reference value :  2.50039e-05
 Reference value :  2.50048e-05
 Reference value :  2.50066e-05
 Reference value :  2.50090e-05
 Reference value :  2.50125e-05
 Reference value :  2.50183e-05
 Reference value :  2.50248e-05
 Reference value :  2.50288e-05
 Reference value :  2.50377e-05
 Reference value :  2.50557e-05
 Reference value :  2.50728e-05
 Reference value :  2.51174e-05
 Reference value :  2.52501e-05
 Reference value :  2.52502e-05
 Reference value :  2.52502e-05
 Reference value :  2.52504e-05
 Reference value :  2.52514e-05
 Reference value :  2.52523e-05
 Reference value :  2.52536e-05
 Reference value :  2.52553e-05
 Reference value :  2.52592e-05
 Reference value :  2.52915e-05
 Reference value :  2.55000e-05
 Reference value :  2.55000e-05
 Reference value :  2.55000e-05
 Reference value :  2.55000e-05
 Reference value :  2.55001e-05
 Reference value :  2.55002e-05
 Reference value :  2.55007e-05
 Reference value :  2.55016e-05
 Reference value :  2.55024e-05
 Reference value :  2.55029e-05
 Reference value :  2.55040e-05
 Reference value :  2.55045e-05
 Reference value :  2.55055e-05
 Reference value :  2.55120e-05
 Reference value :  2.55224e-05
 Reference value :  2.55263e-05
 Reference value :  2.55292e-05
 Reference value :  2.55314e-05
 Reference value :  2.55350e-05
 Reference value :  2.55400e-05
 Reference value :  2.55485e-05
 Reference value :  2.55608e-05
 Reference value :  2.55918e-05
 Reference value :  2.56623e-05
 Reference value :  2.57501e-05
 Reference value :  2.57502e-05
 Reference value :  2.57504e-05
 Reference value :  2.57514e-05
 Reference value :  2.57530e-05
 Reference value :  2.57540e-05
 Reference value :  2.57552e-05
 Reference value :  2.57615e-05
 Reference value :  2.58129e-05
 Reference value :  2.58913e-05
 Reference value :  2.59367e-05
 Reference value :  2.59671e-05
 Reference value :  2.60000e-05
 Reference value :  2.60001e-05
 Reference value :  2.60001e-05
 Reference value :  2.60003e-05
 Reference value :  2.60008e-05
 Reference value :  2.60015e-05
 Reference value :  2.60028e-05
 Reference value :  2.60053e-05
 Reference value :  2.60077e-05
 Reference value :  2.60099e-05
 Reference value :  2.60124e-05
 Reference value :  2.60155e-05
 Reference value :  2.60255e-05
 Reference value :  2.60789e-05
 Reference value :  2.62501e-05
 Reference value :  2.62502e-05
 Reference value :  2.62503e-05
 Reference value :  2.62507e-05
 Reference value :  2.62514e-05
 Reference value :  2.62523e-05
 Reference value :  2.62534e-05
 Reference value :  2.62545e-05
 Reference value :  2.62558e-05
 Reference value :  2.62573e-05
 Reference value :  2.62609e-05
 Reference value :  2.63059e-05
 Reference value :  2.65011e-05
 Reference value :  2.65043e-05
 Reference value :  2.65062e-05
 Reference value :  2.65082e-05
 Reference value :  2.65099e-05
 Reference value :  2.65108e-05
 Reference value :  2.65124e-05
 Reference value :  2.65138e-05
 Reference value :  2.65164e-05
 Reference value :  2.65187e-05
 Reference value :  2.65352e-05
 Reference value :  2.66121e-05
 Reference value :  2.66463e-05
 Reference value :  2.66724e-05
 Reference value :  2.66918e-05
 Reference value :  2.67257e-05
 Reference value :  2.67501e-05
 Reference value :  2.67502e-05
 Reference value :  2.67507e-05
 Reference value :  2.67514e-05
 Reference value :  2.67529e-05
 Reference value :  2.67539e-05
 Reference value :  2.67549e-05
 Reference value :  2.67602e-05
 Reference value :  2.68059e-05
 Reference value :  2.70000e-05
 Reference value :  2.70001e-05
 Reference value :  2.70002e-05
 Reference value :  2.70005e-05
 Reference value :  2.70012e-05
 Reference value :  2.70020e-05
 Reference value :  2.70029e-05
 Reference value :  2.70040e-05
 Reference value :  2.70055e-05
 Reference value :  2.70062e-05
 Reference value :  2.70077e-05
 Reference value :  2.70109e-05
 Reference value :  2.70204e-05
 Reference value :  2.71509e-05
 Reference value :  2.72501e-05
 Reference value :  2.72502e-05
 Reference value :  2.72504e-05
 Reference value :  2.72514e-05
 Reference value :  2.72530e-05
 Reference value :  2.72540e-05
 Reference value :  2.72550e-05
 Reference value :  2.72566e-05
 Reference value :  2.72700e-05
 Reference value :  2.74597e-05
 Reference value :  2.75001e-05
 Reference value :  2.75002e-05
 Reference value :  2.75008e-05
 Reference value :  2.75016e-05
 Reference value :  2.75029e-05
 Reference value :  2.75045e-05
 Reference value :  2.75063e-05
 Reference value :  2.75100e-05
 Reference value :  2.75122e-05
 Reference value :  2.75152e-05
 Reference value :  2.75192e-05
 Reference value :  2.75365e-05
 Reference value :  2.75955e-05
 Reference value :  2.76118e-05
 Reference value :  2.76242e-05
 Reference value :  2.76417e-05
 Reference value :  2.76906e-05
 Reference value :  2.77501e-05
 Reference value :  2.77502e-05
 Reference value :  2.77503e-05
 Reference value :  2.77507e-05
 Reference value :  2.77514e-05
 Reference value :  2.77523e-05
 Reference value :  2.77534e-05
 Reference value :  2.77545e-05
 Reference value :  2.77559e-05
 Reference value :  2.77615e-05
 Reference value :  2.77857e-05
 Reference value :  2.79792e-05
 Reference value :  2.80004e-05
 Reference value :  2.80015e-05
 Reference value :  2.80028e-05
 Reference value :  2.80048e-05
 Reference value :  2.80062e-05
 Reference value :  2.80077e-05
 Reference value :  2.80129e-05
 Reference value :  2.80947e-05
 Reference value :  2.82501e-05
 Reference value :  2.82502e-05
 Reference value :  2.82507e-05
 Reference value :  2.82514e-05
 Reference value :  2.82530e-05
 Reference value :  2.82534e-05
 Reference value :  2.82545e-05
 Reference value :  2.82558e-05
 Reference value :  2.82583e-05
 Reference value :  2.82673e-05
 Reference value :  2.83786e-05
 Reference value :  2.85000e-05
 Reference value :  2.85002e-05
 Reference value :  2.85008e-05
 Reference value :  2.85020e-05
 Reference value :  2.85029e-05
 Reference value :  2.85039e-05
 Reference value :  2.85048e-05
 Reference value :  2.85066e-05
 Reference value :  2.85084e-05
 Reference value :  2.85102e-05
 Reference value :  2.85119e-05
 Reference value :  2.85145e-05
 Reference value :  2.85165e-05
 Reference value :  2.85214e-05
 Reference value :  2.85296e-05
 Reference value :  2.85394e-05
 Reference value :  2.85457e-05
 Reference value :  2.85507e-05
 Reference value :  2.85595e-05
 Reference value :  2.85808e-05
 Reference value :  2.86441e-05
 Reference value :  2.87501e-05
 Reference value :  2.87502e-05
 Reference value :  2.87502e-05
 Reference value :  2.87504e-05
 Reference value :  2.87510e-05
 Reference value :  2.87514e-05
 Reference value :  2.87523e-05
 Reference value :  2.87530e-05
 Reference value :  2.87535e-05
 Reference value :  2.87546e-05
 Reference value :  2.87589e-05
 Reference value :  2.88154e-05
 Reference value :  2.90002e-05
 Reference value :  2.90009e-05
 Reference value :  2.90019e-05
 Reference value :  2.90028e-05
 Reference value :  2.90046e-05
 Reference value :  2.90060e-05
 Reference value :  2.90074e-05
 Reference value :  2.90102e-05
 Reference value :  2.90324e-05
 Reference value :  2.91815e-05
 Reference value :  2.92501e-05
 Reference value :  2.92502e-05
 Reference value :  2.92503e-05
 Reference value :  2.92510e-05
 Reference value :  2.92519e-05
 Reference value :  2.92534e-05
 Reference value :  2.92545e-05
 Reference value :  2.92558e-05
 Reference value :  2.92602e-05
 Reference value :  2.93066e-05
 Reference value :  2.95000e-05
 Reference value :  2.95001e-05
 Reference value :  2.95002e-05
 Reference value :  2.95008e-05
 Reference value :  2.95016e-05
 Reference value :  2.95029e-05
 Reference value :  2.95040e-05
 Reference value :  2.95050e-05
 Reference value :  2.95071e-05
 Reference value :  2.95100e-05
 Reference value :  2.95122e-05
 Reference value :  2.95152e-05
 Reference value :  2.95191e-05
 Reference value :  2.95360e-05
 Reference value :  2.95438e-05
 Reference value :  2.95601e-05
 Reference value :  2.95774e-05
 Reference value :  2.96101e-05
 Reference value :  2.96168e-05
 Reference value :  2.96255e-05
 Reference value :  2.96506e-05
 Reference value :  2.97501e-05
 Reference value :  2.97502e-05
 Reference value :  2.97503e-05
 Reference value :  2.97514e-05
 Reference value :  2.97530e-05
 Reference value :  2.97546e-05
 Reference value :  2.97589e-05
 Reference value :  2.97723e-05
 Reference value :  2.99867e-05
 Reference value :  3.00000e-05
 Reference value :  3.00001e-05
 Reference value :  3.00002e-05
 Reference value :  3.00008e-05
 Reference value :  3.00016e-05
 Reference value :  3.00029e-05
 Reference value :  3.00047e-05
 Reference value :  3.00062e-05
 Reference value :  3.00077e-05
 Reference value :  3.00096e-05
 Reference value :  3.00155e-05
 Reference value :  3.00471e-05
 Reference value :  3.02501e-05
 Reference value :  3.02502e-05
 Reference value :  3.02502e-05
 Reference value :  3.02503e-05
 Reference value :  3.02510e-05
 Reference value :  3.02514e-05
 Reference value :  3.02523e-05
 Reference value :  3.02534e-05
 Reference value :  3.02545e-05
 Reference value :  3.02558e-05
 Reference value :  3.02603e-05
 Reference value :  3.03073e-05
 Reference value :  3.05007e-05
 Reference value :  3.05029e-05
 Reference value :  3.05043e-05
 Reference value :  3.05055e-05
 Reference value :  3.05069e-05
 Reference value :  3.05092e-05
 Reference value :  3.05119e-05
 Reference value :  3.05130e-05
 Reference value :  3.05150e-05
 Reference value :  3.05173e-05
 Reference value :  3.05226e-05
 Reference value :  3.05322e-05
 Reference value :  3.05438e-05
 Reference value :  3.05551e-05
 Reference value :  3.05674e-05
 Reference value :  3.05869e-05
 Reference value :  3.06429e-05
 Reference value :  3.07501e-05
 Reference value :  3.07501e-05
 Reference value :  3.07502e-05
 Reference value :  3.07503e-05
 Reference value :  3.07510e-05
 Reference value :  3.07519e-05
 Reference value :  3.07529e-05
 Reference value :  3.07539e-05
 Reference value :  3.07552e-05
 Reference value :  3.07573e-05
 Reference value :  3.07648e-05
 Reference value :  3.07847e-05
 Reference value :  3.08643e-05
 Reference value :  3.10000e-05
 Reference value :  3.10001e-05
 Reference value :  3.10002e-05
 Reference value :  3.10005e-05
 Reference value :  3.10015e-05
 Reference value :  3.10028e-05
 Reference value :  3.10054e-05
 Reference value :  3.10075e-05
 Reference value :  3.10103e-05
 Reference value :  3.10476e-05
 Reference value :  3.12501e-05
 Reference value :  3.12503e-05
 Reference value :  3.12510e-05
 Reference value :  3.12523e-05
 Reference value :  3.12534e-05
 Reference value :  3.12545e-05
 Reference value :  3.12566e-05
 Reference value :  3.12596e-05
 Reference value :  3.12897e-05
 Reference value :  3.15000e-05
 Reference value :  3.15001e-05
 Reference value :  3.15002e-05
 Reference value :  3.15005e-05
 Reference value :  3.15012e-05
 Reference value :  3.15016e-05
 Reference value :  3.15024e-05
 Reference value :  3.15029e-05
 Reference value :  3.15039e-05
 Reference value :  3.15048e-05
 Reference value :  3.15059e-05
 Reference value :  3.15076e-05
 Reference value :  3.15093e-05
 Reference value :  3.15102e-05
 Reference value :  3.15119e-05
 Reference value :  3.15135e-05
 Reference value :  3.15162e-05
 Reference value :  3.15186e-05
 Reference value :  3.15262e-05
 Reference value :  3.15344e-05
 Reference value :  3.15409e-05
 Reference value :  3.15597e-05
 Reference value :  3.16291e-05
 Reference value :  3.17501e-05
 Reference value :  3.17502e-05
 Reference value :  3.17503e-05
 Reference value :  3.17510e-05
 Reference value :  3.17514e-05
 Reference value :  3.17523e-05
 Reference value :  3.17534e-05
 Reference value :  3.17552e-05
 Reference value :  3.17652e-05
 Reference value :  3.18722e-05
 Reference value :  3.20000e-05
 Reference value :  3.20001e-05
 Reference value :  3.20005e-05
 Reference value :  3.20016e-05
 Reference value :  3.20029e-05
 Reference value :  3.20047e-05
 Reference value :  3.20062e-05
 Reference value :  3.20087e-05
 Reference value :  3.20155e-05
 Reference value :  3.21524e-05
 Reference value :  3.22502e-05
 Reference value :  3.22503e-05
 Reference value :  3.22507e-05
 Reference value :  3.22514e-05
 Reference value :  3.22523e-05
 Reference value :  3.22534e-05
 Reference value :  3.22545e-05
 Reference value :  3.22558e-05
 Reference value :  3.22636e-05
 Reference value :  3.23070e-05
 Reference value :  3.25000e-05
 Reference value :  3.25001e-05
 Reference value :  3.25002e-05
 Reference value :  3.25005e-05
 Reference value :  3.25012e-05
 Reference value :  3.25020e-05
 Reference value :  3.25029e-05
 Reference value :  3.25040e-05
 Reference value :  3.25050e-05
 Reference value :  3.25071e-05
 Reference value :  3.25100e-05
 Reference value :  3.25112e-05
 Reference value :  3.25132e-05
 Reference value :  3.25152e-05
 Reference value :  3.25174e-05
 Reference value :  3.25208e-05
 Reference value :  3.25365e-05
 Reference value :  3.26092e-05
 Reference value :  3.27501e-05
 Reference value :  3.27501e-05
 Reference value :  3.27502e-05
 Reference value :  3.27503e-05
 Reference value :  3.27510e-05
 Reference value :  3.27519e-05
 Reference value :  3.27530e-05
 Reference value :  3.27534e-05
 Reference value :  3.27547e-05
 Reference value :  3.27560e-05
 Reference value :  3.27618e-05
 Reference value :  3.27885e-05
 Reference value :  3.29377e-05
 Reference value :  3.29814e-05
 Reference value :  3.30000e-05
 Reference value :  3.30001e-05
 Reference value :  3.30001e-05
 Reference value :  3.30002e-05
 Reference value :  3.30003e-05
 Reference value :  3.30008e-05
 Reference value :  3.30015e-05
 Reference value :  3.30023e-05
 Reference value :  3.30028e-05
 Reference value :  3.30033e-05
 Reference value :  3.30046e-05
 Reference value :  3.30060e-05
 Reference value :  3.30075e-05
 Reference value :  3.30092e-05
 Reference value :  3.30103e-05
 Reference value :  3.30136e-05
 Reference value :  3.30321e-05
 Reference value :  3.30816e-05
 Reference value :  3.32501e-05
 Reference value :  3.32501e-05
 Reference value :  3.32502e-05
 Reference value :  3.32503e-05
 Reference value :  3.32507e-05
 Reference value :  3.32514e-05
 Reference value :  3.32523e-05
 Reference value :  3.32534e-05
 Reference value :  3.32545e-05
 Reference value :  3.32558e-05
 Reference value :  3.32575e-05
 Reference value :  3.32596e-05
 Reference value :  3.32636e-05
 Reference value :  3.32749e-05
 Reference value :  3.33201e-05
 Reference value :  3.35000e-05
 Reference value :  3.35018e-05
 Reference value :  3.35055e-05
 Reference value :  3.35073e-05
 Reference value :  3.35110e-05
 Reference value :  3.35125e-05
 Reference value :  3.35159e-05
 Reference value :  3.35172e-05
 Reference value :  3.35206e-05
 Reference value :  3.35300e-05
 Reference value :  3.35648e-05
 Reference value :  3.37282e-05
 Reference value :  3.37501e-05
 Reference value :  3.37502e-05
 Reference value :  3.37503e-05
 Reference value :  3.37507e-05
 Reference value :  3.37514e-05
 Reference value :  3.37518e-05
 Reference value :  3.37527e-05
 Reference value :  3.37539e-05
 Reference value :  3.37555e-05
 Reference value :  3.37597e-05
 Reference value :  3.37749e-05
 Reference value :  3.38502e-05
 Reference value :  3.40000e-05
 Reference value :  3.40000e-05
 Reference value :  3.40000e-05
 Reference value :  3.40000e-05
 Reference value :  3.40000e-05
 Reference value :  3.40001e-05
 Reference value :  3.40002e-05
 Reference value :  3.40004e-05
 Reference value :  3.40012e-05
 Reference value :  3.40020e-05
 Reference value :  3.40029e-05
 Reference value :  3.40040e-05
 Reference value :  3.40045e-05
 Reference value :  3.40055e-05
 Reference value :  3.40090e-05
 Reference value :  3.40173e-05
 Reference value :  3.40224e-05
 Reference value :  3.40263e-05
 Reference value :  3.40292e-05
 Reference value :  3.40342e-05
 Reference value :  3.40375e-05
 Reference value :  3.40439e-05
 Reference value :  3.40543e-05
 Reference value :  3.40762e-05
 Reference value :  3.41304e-05
 Reference value :  3.42362e-05
 Reference value :  3.42502e-05
 Reference value :  3.42503e-05
 Reference value :  3.42510e-05
 Reference value :  3.42519e-05
 Reference value :  3.42530e-05
 Reference value :  3.42540e-05
 Reference value :  3.42552e-05
 Reference value :  3.42588e-05
 Reference value :  3.42854e-05
 Reference value :  3.43519e-05
 Reference value :  3.43922e-05
 Reference value :  3.44205e-05
 Reference value :  3.44368e-05
 Reference value :  3.44640e-05
 Reference value :  3.45000e-05
 Reference value :  3.45001e-05
 Reference value :  3.45002e-05
 Reference value :  3.45008e-05
 Reference value :  3.45015e-05
 Reference value :  3.45028e-05
 Reference value :  3.45039e-05
 Reference value :  3.45064e-05
 Reference value :  3.45088e-05
 Reference value :  3.45112e-05
 Reference value :  3.45124e-05
 Reference value :  3.45154e-05
 Reference value :  3.45255e-05
 Reference value :  3.45790e-05
 Reference value :  3.47501e-05
 Reference value :  3.47502e-05
 Reference value :  3.47503e-05
 Reference value :  3.47504e-05
 Reference value :  3.47510e-05
 Reference value :  3.47519e-05
 Reference value :  3.47530e-05
 Reference value :  3.47540e-05
 Reference value :  3.47550e-05
 Reference value :  3.47565e-05
 Reference value :  3.47582e-05
 Reference value :  3.47609e-05
 Reference value :  3.47729e-05
 Reference value :  3.49352e-05
 Reference value :  3.50000e-05
 Reference value :  3.50001e-05
 Reference value :  3.50002e-05
 Reference value :  3.50005e-05
 Reference value :  3.50012e-05
 Reference value :  3.50016e-05
 Reference value :  3.50024e-05
 Reference value :  3.50029e-05
 Reference value :  3.50039e-05
 Reference value :  3.50048e-05
 Reference value :  3.50066e-05
 Reference value :  3.50093e-05
 Reference value :  3.50112e-05
 Reference value :  3.50127e-05
 Reference value :  3.50144e-05
 Reference value :  3.50173e-05
 Reference value :  3.50384e-05
 Reference value :  3.51254e-05
 Reference value :  3.51568e-05
 Reference value :  3.51787e-05
 Reference value :  3.52050e-05
 Reference value :  3.52501e-05
 Reference value :  3.52502e-05
 Reference value :  3.52502e-05
 Reference value :  3.52504e-05
 Reference value :  3.52510e-05
 Reference value :  3.52514e-05
 Reference value :  3.52523e-05
 Reference value :  3.52535e-05
 Reference value :  3.52546e-05
 Reference value :  3.52574e-05
 Reference value :  3.52723e-05
 Reference value :  3.53723e-05
 Reference value :  3.55000e-05
 Reference value :  3.55000e-05
 Reference value :  3.55001e-05
 Reference value :  3.55002e-05
 Reference value :  3.55003e-05
 Reference value :  3.55008e-05
 Reference value :  3.55016e-05
 Reference value :  3.55029e-05
 Reference value :  3.55047e-05
 Reference value :  3.55062e-05
 Reference value :  3.55077e-05
 Reference value :  3.55109e-05
 Reference value :  3.55295e-05
 Reference value :  3.57501e-05
 Reference value :  3.57502e-05
 Reference value :  3.57502e-05
 Reference value :  3.57504e-05
 Reference value :  3.57510e-05
 Reference value :  3.57514e-05
 Reference value :  3.57523e-05
 Reference value :  3.57530e-05
 Reference value :  3.57534e-05
 Reference value :  3.57545e-05
 Reference value :  3.57558e-05
 Reference value :  3.57582e-05
 Reference value :  3.57698e-05
 Reference value :  3.58073e-05
 Reference value :  3.59572e-05
 Reference value :  3.60007e-05
 Reference value :  3.60029e-05
 Reference value :  3.60043e-05
 Reference value :  3.60055e-05
 Reference value :  3.60069e-05
 Reference value :  3.60092e-05
 Reference value :  3.60120e-05
 Reference value :  3.60139e-05
 Reference value :  3.60161e-05
 Reference value :  3.60206e-05
 Reference value :  3.60457e-05
 Reference value :  3.60896e-05
 Reference value :  3.61238e-05
 Reference value :  3.61324e-05
 Reference value :  3.61402e-05
 Reference value :  3.61789e-05
 Reference value :  3.62501e-05
 Reference value :  3.62502e-05
 Reference value :  3.62503e-05
 Reference value :  3.62504e-05
 Reference value :  3.62510e-05
 Reference value :  3.62519e-05
 Reference value :  3.62529e-05
 Reference value :  3.62534e-05
 Reference value :  3.62545e-05
 Reference value :  3.62559e-05
 Reference value :  3.62614e-05
 Reference value :  3.62845e-05
 Reference value :  3.65000e-05
 Reference value :  3.65001e-05
 Reference value :  3.65002e-05
 Reference value :  3.65012e-05
 Reference value :  3.65023e-05
 Reference value :  3.65039e-05
 Reference value :  3.65060e-05
 Reference value :  3.65084e-05
 Reference value :  3.65114e-05
 Reference value :  3.65317e-05
 Reference value :  3.67501e-05
 Reference value :  3.67502e-05
 Reference value :  3.67502e-05
 Reference value :  3.67504e-05
 Reference value :  3.67510e-05
 Reference value :  3.67519e-05
 Reference value :  3.67530e-05
 Reference value :  3.67540e-05
 Reference value :  3.67550e-05
 Reference value :  3.67566e-05
 Reference value :  3.67596e-05
 Reference value :  3.67749e-05
 Reference value :  3.70000e-05
 Reference value :  3.70001e-05
 Reference value :  3.70002e-05
 Reference value :  3.70003e-05
 Reference value :  3.70008e-05
 Reference value :  3.70016e-05
 Reference value :  3.70024e-05
 Reference value :  3.70029e-05
 Reference value :  3.70039e-05
 Reference value :  3.70048e-05
 Reference value :  3.70066e-05
 Reference value :  3.70076e-05
 Reference value :  3.70093e-05
 Reference value :  3.70102e-05
 Reference value :  3.70119e-05
 Reference value :  3.70145e-05
 Reference value :  3.70177e-05
 Reference value :  3.70255e-05
 Reference value :  3.70294e-05
 Reference value :  3.70376e-05
 Reference value :  3.70405e-05
 Reference value :  3.70454e-05
 Reference value :  3.70571e-05
 Reference value :  3.70681e-05
 Reference value :  3.70970e-05
 Reference value :  3.72030e-05
 Reference value :  3.72501e-05
 Reference value :  3.72502e-05
 Reference value :  3.72503e-05
 Reference value :  3.72504e-05
 Reference value :  3.72510e-05
 Reference value :  3.72519e-05
 Reference value :  3.72530e-05
 Reference value :  3.72535e-05
 Reference value :  3.72546e-05
 Reference value :  3.72560e-05
 Reference value :  3.72616e-05
 Reference value :  3.73154e-05
 Reference value :  3.75000e-05
 Reference value :  3.75001e-05
 Reference value :  3.75002e-05
 Reference value :  3.75005e-05
 Reference value :  3.75016e-05
 Reference value :  3.75029e-05
 Reference value :  3.75040e-05
 Reference value :  3.75062e-05
 Reference value :  3.75077e-05
 Reference value :  3.75109e-05
 Reference value :  3.75474e-05
 Reference value :  3.77501e-05
 Reference value :  3.77502e-05
 Reference value :  3.77504e-05
 Reference value :  3.77514e-05
 Reference value :  3.77530e-05
 Reference value :  3.77540e-05
 Reference value :  3.77550e-05
 Reference value :  3.77566e-05
 Reference value :  3.77636e-05
 Reference value :  3.78070e-05
 Reference value :  3.80000e-05
 Reference value :  3.80000e-05
 Reference value :  3.80001e-05
 Reference value :  3.80002e-05
 Reference value :  3.80003e-05
 Reference value :  3.80008e-05
 Reference value :  3.80016e-05
 Reference value :  3.80024e-05
 Reference value :  3.80029e-05
 Reference value :  3.80040e-05
 Reference value :  3.80050e-05
 Reference value :  3.80071e-05
 Reference value :  3.80100e-05
 Reference value :  3.80112e-05
 Reference value :  3.80132e-05
 Reference value :  3.80152e-05
 Reference value :  3.80174e-05
 Reference value :  3.80239e-05
 Reference value :  3.80440e-05
 Reference value :  3.80646e-05
 Reference value :  3.80719e-05
 Reference value :  3.80979e-05
 Reference value :  3.81088e-05
 Reference value :  3.81174e-05
 Reference value :  3.81259e-05
 Reference value :  3.81326e-05
 Reference value :  3.81535e-05
 Reference value :  3.81944e-05
 Reference value :  3.82501e-05
 Reference value :  3.82501e-05
 Reference value :  3.82502e-05
 Reference value :  3.82503e-05
 Reference value :  3.82507e-05
 Reference value :  3.82514e-05
 Reference value :  3.82523e-05
 Reference value :  3.82530e-05
 Reference value :  3.82534e-05
 Reference value :  3.82546e-05
 Reference value :  3.82560e-05
 Reference value :  3.82589e-05
 Reference value :  3.82652e-05
 Reference value :  3.82866e-05
 Reference value :  3.83722e-05
 Reference value :  3.85000e-05
 Reference value :  3.85002e-05
 Reference value :  3.85010e-05
 Reference value :  3.85015e-05
 Reference value :  3.85024e-05
 Reference value :  3.85035e-05
 Reference value :  3.85049e-05
 Reference value :  3.85066e-05
 Reference value :  3.85094e-05
 Reference value :  3.85139e-05
 Reference value :  3.85457e-05
 Reference value :  3.87404e-05
 Reference value :  3.87501e-05
 Reference value :  3.87502e-05
 Reference value :  3.87503e-05
 Reference value :  3.87504e-05
 Reference value :  3.87510e-05
 Reference value :  3.87519e-05
 Reference value :  3.87530e-05
 Reference value :  3.87534e-05
 Reference value :  3.87545e-05
 Reference value :  3.87558e-05
 Reference value :  3.87603e-05
 Reference value :  3.87822e-05
 Reference value :  3.89562e-05
 Reference value :  3.90000e-05
 Reference value :  3.90001e-05
 Reference value :  3.90003e-05
 Reference value :  3.90012e-05
 Reference value :  3.90020e-05
 Reference value :  3.90029e-05
 Reference value :  3.90040e-05
 Reference value :  3.90050e-05
 Reference value :  3.90071e-05
 Reference value :  3.90112e-05
 Reference value :  3.90132e-05
 Reference value :  3.90152e-05
 Reference value :  3.90208e-05
 Reference value :  3.90422e-05
 Reference value :  3.90554e-05
 Reference value :  3.90722e-05
 Reference value :  3.91084e-05
 Reference value :  3.92501e-05
 Reference value :  3.92502e-05
 Reference value :  3.92503e-05
 Reference value :  3.92507e-05
 Reference value :  3.92514e-05
 Reference value :  3.92530e-05
 Reference value :  3.92539e-05
 Reference value :  3.92559e-05
 Reference value :  3.92649e-05
 Reference value :  3.93681e-05
 Reference value :  3.95000e-05
 Reference value :  3.95001e-05
 Reference value :  3.95005e-05
 Reference value :  3.95015e-05
 Reference value :  3.95028e-05
 Reference value :  3.95039e-05
 Reference value :  3.95060e-05
 Reference value :  3.95075e-05
 Reference value :  3.95103e-05
 Reference value :  3.95316e-05
 Reference value :  3.97501e-05
 Reference value :  3.97502e-05
 Reference value :  3.97503e-05
 Reference value :  3.97514e-05
 Reference value :  3.97530e-05
 Reference value :  3.97534e-05
 Reference value :  3.97545e-05
 Reference value :  3.97558e-05
 Reference value :  3.97584e-05
 Reference value :  3.97610e-05
 Reference value :  3.97748e-05
 Reference value :  3.98794e-05
 Reference value :  4.00000e-05
 Reference value :  4.00001e-05
 Reference value :  4.00002e-05
 Reference value :  4.00005e-05
 Reference value :  4.00012e-05
 Reference value :  4.00020e-05
 Reference value :  4.00024e-05
 Reference value :  4.00034e-05
 Reference value :  4.00044e-05
 Reference value :  4.00053e-05
 Reference value :  4.00076e-05
 Reference value :  4.00093e-05
 Reference value :  4.00102e-05
 Reference value :  4.00119e-05
 Reference value :  4.00135e-05
 Reference value :  4.00162e-05
 Reference value :  4.00201e-05
 Reference value :  4.00255e-05
 Reference value :  4.00315e-05
 Reference value :  4.00553e-05
 Reference value :  4.02002e-05
 Reference value :  4.02502e-05
 Reference value :  4.02503e-05
 Reference value :  4.02507e-05
 Reference value :  4.02514e-05
 Reference value :  4.02530e-05
 Reference value :  4.02540e-05
 Reference value :  4.02574e-05
 Reference value :  4.02866e-05
 Reference value :  4.05000e-05
 Reference value :  4.05001e-05
 Reference value :  4.05002e-05
 Reference value :  4.05003e-05
 Reference value :  4.05008e-05
 Reference value :  4.05016e-05
 Reference value :  4.05029e-05
 Reference value :  4.05047e-05
 Reference value :  4.05062e-05
 Reference value :  4.05087e-05
 Reference value :  4.05205e-05
 Reference value :  4.07501e-05
 Reference value :  4.07502e-05
 Reference value :  4.07504e-05
 Reference value :  4.07514e-05
 Reference value :  4.07530e-05
 Reference value :  4.07540e-05
 Reference value :  4.07558e-05
 Reference value :  4.07698e-05
 Reference value :  4.09558e-05
 Reference value :  4.10007e-05
 Reference value :  4.10030e-05
 Reference value :  4.10044e-05
 Reference value :  4.10056e-05
 Reference value :  4.10093e-05
 Reference value :  4.10130e-05
 Reference value :  4.10160e-05
 Reference value :  4.10224e-05
 Reference value :  4.10973e-05
 Reference value :  4.12501e-05
 Reference value :  4.12502e-05
 Reference value :  4.12504e-05
 Reference value :  4.12514e-05
 Reference value :  4.12530e-05
 Reference value :  4.12534e-05
 Reference value :  4.12551e-05
 Reference value :  4.12644e-05
 Reference value :  4.14626e-05
 Reference value :  4.15001e-05
 Reference value :  4.15001e-05
 Reference value :  4.15003e-05
 Reference value :  4.15012e-05
 Reference value :  4.15020e-05
 Reference value :  4.15029e-05
 Reference value :  4.15040e-05
 Reference value :  4.15055e-05
 Reference value :  4.15062e-05
 Reference value :  4.15077e-05
 Reference value :  4.15095e-05
 Reference value :  4.15203e-05
 Reference value :  4.15795e-05
 Reference value :  4.17501e-05
 Reference value :  4.17502e-05
 Reference value :  4.17503e-05
 Reference value :  4.17504e-05
 Reference value :  4.17510e-05
 Reference value :  4.17519e-05
 Reference value :  4.17530e-05
 Reference value :  4.17534e-05
 Reference value :  4.17545e-05
 Reference value :  4.17558e-05
 Reference value :  4.17603e-05
 Reference value :  4.17825e-05
 Reference value :  4.19588e-05
 Reference value :  4.20000e-05
 Reference value :  4.20001e-05
 Reference value :  4.20003e-05
 Reference value :  4.20012e-05
 Reference value :  4.20020e-05
 Reference value :  4.20029e-05
 Reference value :  4.20040e-05
 Reference value :  4.20050e-05
 Reference value :  4.20064e-05
 Reference value :  4.20079e-05
 Reference value :  4.20088e-05
 Reference value :  4.20118e-05
 Reference value :  4.20366e-05
 Reference value :  4.21206e-05
 Reference value :  4.22501e-05
 Reference value :  4.22501e-05
 Reference value :  4.22502e-05
 Reference value :  4.22503e-05
 Reference value :  4.22504e-05
 Reference value :  4.22510e-05
 Reference value :  4.22514e-05
 Reference value :  4.22523e-05
 Reference value :  4.22530e-05
 Reference value :  4.22545e-05
 Reference value :  4.22553e-05
 Reference value :  4.22577e-05
 Reference value :  4.22662e-05
 Reference value :  4.23217e-05
 Reference value :  4.25000e-05
 Reference value :  4.25000e-05
 Reference value :  4.25000e-05
 Reference value :  4.25001e-05
 Reference value :  4.25002e-05
 Reference value :  4.25007e-05
 Reference value :  4.25020e-05
 Reference value :  4.25029e-05
 Reference value :  4.25040e-05
 Reference value :  4.25045e-05
 Reference value :  4.25055e-05
 Reference value :  4.25120e-05
 Reference value :  4.25224e-05
 Reference value :  4.25263e-05
 Reference value :  4.25312e-05
 Reference value :  4.25359e-05
 Reference value :  4.25389e-05
 Reference value :  4.25482e-05
 Reference value :  4.25718e-05
 Reference value :  4.26451e-05
 Reference value :  4.27501e-05
 Reference value :  4.27502e-05
 Reference value :  4.27504e-05
 Reference value :  4.27514e-05
 Reference value :  4.27530e-05
 Reference value :  4.27540e-05
 Reference value :  4.27552e-05
 Reference value :  4.27615e-05
 Reference value :  4.27854e-05
 Reference value :  4.28526e-05
 Reference value :  4.28940e-05
 Reference value :  4.29231e-05
 Reference value :  4.29406e-05
 Reference value :  4.29719e-05
 Reference value :  4.30000e-05
 Reference value :  4.30001e-05
 Reference value :  4.30003e-05
 Reference value :  4.30012e-05
 Reference value :  4.30019e-05
 Reference value :  4.30028e-05
 Reference value :  4.30039e-05
 Reference value :  4.30053e-05
 Reference value :  4.30064e-05
 Reference value :  4.30088e-05
 Reference value :  4.30112e-05
 Reference value :  4.30124e-05
 Reference value :  4.30155e-05
 Reference value :  4.30205e-05
 Reference value :  4.30489e-05
 Reference value :  4.32501e-05
 Reference value :  4.32502e-05
 Reference value :  4.32502e-05
 Reference value :  4.32504e-05
 Reference value :  4.32510e-05
 Reference value :  4.32519e-05
 Reference value :  4.32530e-05
 Reference value :  4.32540e-05
 Reference value :  4.32550e-05
 Reference value :  4.32565e-05
 Reference value :  4.32595e-05
 Reference value :  4.32666e-05
 Reference value :  4.33521e-05
 Reference value :  4.35010e-05
 Reference value :  4.35039e-05
 Reference value :  4.35056e-05
 Reference value :  4.35080e-05
 Reference value :  4.35095e-05
 Reference value :  4.35112e-05
 Reference value :  4.35129e-05
 Reference value :  4.35146e-05
 Reference value :  4.35173e-05
 Reference value :  4.35280e-05
 Reference value :  4.36062e-05
 Reference value :  4.36393e-05
 Reference value :  4.36941e-05
 Reference value :  4.37500e-05
 Reference value :  4.37502e-05
 Reference value :  4.37503e-05
 Reference value :  4.37514e-05
 Reference value :  4.37529e-05
 Reference value :  4.37544e-05
 Reference value :  4.37581e-05
 Reference value :  4.38552e-05
 Reference value :  4.40001e-05
 Reference value :  4.40002e-05
 Reference value :  4.40008e-05
 Reference value :  4.40020e-05
 Reference value :  4.40034e-05
 Reference value :  4.40055e-05
 Reference value :  4.40062e-05
 Reference value :  4.40077e-05
 Reference value :  4.40109e-05
 Reference value :  4.40294e-05
 Reference value :  4.41508e-05
 Reference value :  4.42502e-05
 Reference value :  4.42502e-05
 Reference value :  4.42507e-05
 Reference value :  4.42514e-05
 Reference value :  4.42530e-05
 Reference value :  4.42534e-05
 Reference value :  4.42545e-05
 Reference value :  4.42558e-05
 Reference value :  4.42636e-05
 Reference value :  4.43074e-05
 Reference value :  4.45000e-05
 Reference value :  4.45001e-05
 Reference value :  4.45001e-05
 Reference value :  4.45003e-05
 Reference value :  4.45008e-05
 Reference value :  4.45016e-05
 Reference value :  4.45029e-05
 Reference value :  4.45045e-05
 Reference value :  4.45050e-05
 Reference value :  4.45063e-05
 Reference value :  4.45085e-05
 Reference value :  4.45100e-05
[...]
 Reference value :  1.66578e-04
 Reference value :  1.66690e-04
 Reference value :  1.66750e-04
 Reference value :  1.66750e-04
 Reference value :  1.66751e-04
 Reference value :  1.66752e-04
 Reference value :  1.66753e-04
 Reference value :  1.66755e-04
 Reference value :  1.66759e-04
 Reference value :  1.66787e-04
 Reference value :  1.67000e-04
 Reference value :  1.67000e-04
 Reference value :  1.67001e-04
 Reference value :  1.67002e-04
 Reference value :  1.67003e-04
 Reference value :  1.67006e-04
 Reference value :  1.67007e-04
 Reference value :  1.67010e-04
 Reference value :  1.67047e-04
 Reference value :  1.67250e-04
 Reference value :  1.67250e-04
 Reference value :  1.67251e-04
 Reference value :  1.67252e-04
 Reference value :  1.67253e-04
 Reference value :  1.67254e-04
 Reference value :  1.67256e-04
 Reference value :  1.67270e-04
 Reference value :  1.67457e-04
 Reference value :  1.67500e-04
 Reference value :  1.67500e-04
 Reference value :  1.67501e-04
 Reference value :  1.67501e-04
 Reference value :  1.67502e-04
 Reference value :  1.67503e-04
 Reference value :  1.67504e-04
 Reference value :  1.67505e-04
 Reference value :  1.67507e-04
 Reference value :  1.67511e-04
 Reference value :  1.67513e-04
 Reference value :  1.67515e-04
 Reference value :  1.67519e-04
 Reference value :  1.67536e-04
 Reference value :  1.67620e-04
 Reference value :  1.67750e-04
 Reference value :  1.67750e-04
 Reference value :  1.67751e-04
 Reference value :  1.67751e-04
 Reference value :  1.67753e-04
 Reference value :  1.67754e-04
 Reference value :  1.67755e-04
 Reference value :  1.67759e-04
 Reference value :  1.67787e-04
 Reference value :  1.68000e-04
 Reference value :  1.68000e-04
 Reference value :  1.68000e-04
 Reference value :  1.68000e-04
 Reference value :  1.68001e-04
 Reference value :  1.68002e-04
 Reference value :  1.68002e-04
 Reference value :  1.68003e-04
 Reference value :  1.68004e-04
 Reference value :  1.68006e-04
 Reference value :  1.68007e-04
 Reference value :  1.68009e-04
 Reference value :  1.68012e-04
 Reference value :  1.68047e-04
 Reference value :  1.68250e-04
 Reference value :  1.68250e-04
 Reference value :  1.68250e-04
 Reference value :  1.68251e-04
 Reference value :  1.68252e-04
 Reference value :  1.68253e-04
 Reference value :  1.68253e-04
 Reference value :  1.68254e-04
 Reference value :  1.68256e-04
 Reference value :  1.68264e-04
 Reference value :  1.68457e-04
 Reference value :  1.68500e-04
 Reference value :  1.68500e-04
 Reference value :  1.68500e-04
 Reference value :  1.68501e-04
 Reference value :  1.68502e-04
 Reference value :  1.68504e-04
 Reference value :  1.68506e-04
 Reference value :  1.68510e-04
 Reference value :  1.68512e-04
 Reference value :  1.68515e-04
 Reference value :  1.68524e-04
 Reference value :  1.68656e-04
 Reference value :  1.68750e-04
 Reference value :  1.68750e-04
 Reference value :  1.68751e-04
 Reference value :  1.68752e-04
 Reference value :  1.68753e-04
 Reference value :  1.68754e-04
 Reference value :  1.68755e-04
 Reference value :  1.68758e-04
 Reference value :  1.68762e-04
 Reference value :  1.68773e-04
 Reference value :  1.68819e-04
 Reference value :  1.68937e-04
 Reference value :  1.68993e-04
 Reference value :  1.69000e-04
 Reference value :  1.69000e-04
 Reference value :  1.69000e-04
 Reference value :  1.69001e-04
 Reference value :  1.69001e-04
 Reference value :  1.69002e-04
 Reference value :  1.69003e-04
 Reference value :  1.69004e-04
 Reference value :  1.69005e-04
 Reference value :  1.69006e-04
 Reference value :  1.69007e-04
 Reference value :  1.69010e-04
 Reference value :  1.69022e-04
 Reference value :  1.69149e-04
 Reference value :  1.69250e-04
 Reference value :  1.69250e-04
 Reference value :  1.69250e-04
 Reference value :  1.69251e-04
 Reference value :  1.69252e-04
 Reference value :  1.69253e-04
 Reference value :  1.69254e-04
 Reference value :  1.69256e-04
 Reference value :  1.69257e-04
 Reference value :  1.69260e-04
 Reference value :  1.69275e-04
 Reference value :  1.69380e-04
 Reference value :  1.69500e-04
 Reference value :  1.69500e-04
 Reference value :  1.69500e-04
 Reference value :  1.69500e-04
 Reference value :  1.69501e-04
 Reference value :  1.69502e-04
 Reference value :  1.69502e-04
 Reference value :  1.69503e-04
 Reference value :  1.69504e-04
 Reference value :  1.69505e-04
 Reference value :  1.69507e-04
 Reference value :  1.69507e-04
 Reference value :  1.69509e-04
 Reference value :  1.69511e-04
 Reference value :  1.69514e-04
 Reference value :  1.69515e-04
 Reference value :  1.69516e-04
 Reference value :  1.69519e-04
 Reference value :  1.69527e-04
 Reference value :  1.69556e-04
 Reference value :  1.69716e-04
 Reference value :  1.69750e-04
 Reference value :  1.69750e-04
 Reference value :  1.69750e-04
 Reference value :  1.69750e-04
 Reference value :  1.69751e-04
 Reference value :  1.69751e-04
 Reference value :  1.69752e-04
 Reference value :  1.69754e-04
 Reference value :  1.69755e-04
 Reference value :  1.69758e-04
 Reference value :  1.69766e-04
 Reference value :  1.69822e-04
 Reference value :  1.70000e-04
 Reference value :  1.70000e-04
 Reference value :  1.70000e-04
 Reference value :  1.70000e-04
 Reference value :  1.70000e-04
 Reference value :  1.70000e-04
 Reference value :  1.70000e-04
 Reference value :  1.70001e-04
 Reference value :  1.70002e-04
 Reference value :  1.70003e-04
 Reference value :  1.70004e-04
 Reference value :  1.70006e-04
 Reference value :  1.70022e-04
 Reference value :  1.70026e-04
 Reference value :  1.70029e-04
 Reference value :  1.70034e-04
 Reference value :  1.70037e-04
 Reference value :  1.70040e-04
 Reference value :  1.70049e-04
 Reference value :  1.70061e-04
 Reference value :  1.70106e-04
 Reference value :  1.70240e-04
 Reference value :  1.70250e-04
 Reference value :  1.70250e-04
 Reference value :  1.70251e-04
 Reference value :  1.70251e-04
 Reference value :  1.70252e-04
 Reference value :  1.70253e-04
 Reference value :  1.70255e-04
 Reference value :  1.70257e-04
 Reference value :  1.70272e-04
 Reference value :  1.70367e-04
 Reference value :  1.70417e-04
 Reference value :  1.70453e-04
 Reference value :  1.70467e-04
 Reference value :  1.70481e-04
 Reference value :  1.70500e-04
 Reference value :  1.70500e-04
 Reference value :  1.70500e-04
 Reference value :  1.70500e-04
 Reference value :  1.70501e-04
 Reference value :  1.70502e-04
 Reference value :  1.70502e-04
 Reference value :  1.70503e-04
 Reference value :  1.70504e-04
 Reference value :  1.70506e-04
 Reference value :  1.70509e-04
 Reference value :  1.70511e-04
 Reference value :  1.70512e-04
 Reference value :  1.70515e-04
 Reference value :  1.70526e-04
 Reference value :  1.70581e-04
 Reference value :  1.70750e-04
 Reference value :  1.70750e-04
 Reference value :  1.70750e-04
 Reference value :  1.70751e-04
 Reference value :  1.70751e-04
 Reference value :  1.70753e-04
 Reference value :  1.70753e-04
 Reference value :  1.70754e-04
 Reference value :  1.70756e-04
 Reference value :  1.70758e-04
 Reference value :  1.70761e-04
 Reference value :  1.70784e-04
 Reference value :  1.71000e-04
 Reference value :  1.71000e-04
 Reference value :  1.71001e-04
 Reference value :  1.71002e-04
 Reference value :  1.71003e-04
 Reference value :  1.71004e-04
 Reference value :  1.71005e-04
 Reference value :  1.71007e-04
 Reference value :  1.71009e-04
 Reference value :  1.71011e-04
 Reference value :  1.71013e-04
 Reference value :  1.71014e-04
 Reference value :  1.71016e-04
 Reference value :  1.71024e-04
 Reference value :  1.71091e-04
 Reference value :  1.71122e-04
 Reference value :  1.71174e-04
 Reference value :  1.71207e-04
 Reference value :  1.71250e-04
 Reference value :  1.71250e-04
 Reference value :  1.71251e-04
 Reference value :  1.71251e-04
 Reference value :  1.71253e-04
 Reference value :  1.71254e-04
 Reference value :  1.71256e-04
 Reference value :  1.71265e-04
 Reference value :  1.71372e-04
 Reference value :  1.71500e-04
 Reference value :  1.71500e-04
 Reference value :  1.71500e-04
 Reference value :  1.71501e-04
 Reference value :  1.71502e-04
 Reference value :  1.71502e-04
 Reference value :  1.71503e-04
 Reference value :  1.71504e-04
 Reference value :  1.71506e-04
 Reference value :  1.71506e-04
 Reference value :  1.71508e-04
 Reference value :  1.71511e-04
 Reference value :  1.71530e-04
 Reference value :  1.71652e-04
 Reference value :  1.71750e-04
 Reference value :  1.71750e-04
 Reference value :  1.71750e-04
 Reference value :  1.71751e-04
 Reference value :  1.71752e-04
 Reference value :  1.71753e-04
 Reference value :  1.71753e-04
 Reference value :  1.71754e-04
 Reference value :  1.71756e-04
 Reference value :  1.71760e-04
 Reference value :  1.71782e-04
 Reference value :  1.71957e-04
 Reference value :  1.72000e-04
 Reference value :  1.72000e-04
 Reference value :  1.72000e-04
 Reference value :  1.72000e-04
 Reference value :  1.72001e-04
 Reference value :  1.72001e-04
 Reference value :  1.72002e-04
 Reference value :  1.72002e-04
 Reference value :  1.72003e-04
 Reference value :  1.72005e-04
 Reference value :  1.72007e-04
 Reference value :  1.72011e-04
 Reference value :  1.72013e-04
 Reference value :  1.72015e-04
 Reference value :  1.72021e-04
 Reference value :  1.72073e-04
 Reference value :  1.72128e-04
 Reference value :  1.72161e-04
 Reference value :  1.72182e-04
 Reference value :  1.72238e-04
 Reference value :  1.72250e-04
 Reference value :  1.72250e-04
 Reference value :  1.72250e-04
 Reference value :  1.72251e-04
 Reference value :  1.72251e-04
 Reference value :  1.72252e-04
 Reference value :  1.72253e-04
 Reference value :  1.72253e-04
 Reference value :  1.72255e-04
 Reference value :  1.72256e-04
 Reference value :  1.72261e-04
 Reference value :  1.72368e-04
 Reference value :  1.72500e-04
 Reference value :  1.72500e-04
 Reference value :  1.72500e-04
 Reference value :  1.72501e-04
 Reference value :  1.72502e-04
 Reference value :  1.72502e-04
 Reference value :  1.72503e-04
 Reference value :  1.72505e-04
 Reference value :  1.72506e-04
 Reference value :  1.72507e-04
 Reference value :  1.72510e-04
 Reference value :  1.72522e-04
 Reference value :  1.72643e-04
 Reference value :  1.72750e-04
 Reference value :  1.72750e-04
 Reference value :  1.72751e-04
 Reference value :  1.72752e-04
 Reference value :  1.72754e-04
 Reference value :  1.72755e-04
 Reference value :  1.72757e-04
 Reference value :  1.72758e-04
 Reference value :  1.72760e-04
 Reference value :  1.72764e-04
 Reference value :  1.72790e-04
 Reference value :  1.73000e-04
 Reference value :  1.73000e-04
 Reference value :  1.73000e-04
 Reference value :  1.73000e-04
 Reference value :  1.73000e-04
 Reference value :  1.73000e-04
 Reference value :  1.73000e-04
 Reference value :  1.73001e-04
 Reference value :  1.73002e-04
 Reference value :  1.73003e-04
 Reference value :  1.73004e-04
 Reference value :  1.73005e-04
 Reference value :  1.73005e-04
 Reference value :  1.73006e-04
 Reference value :  1.73008e-04
 Reference value :  1.73009e-04
 Reference value :  1.73011e-04
 Reference value :  1.73013e-04
 Reference value :  1.73015e-04
 Reference value :  1.73017e-04
 Reference value :  1.73022e-04
 Reference value :  1.73026e-04
 Reference value :  1.73029e-04
 Reference value :  1.73040e-04
 Reference value :  1.73050e-04
 Reference value :  1.73076e-04
 Reference value :  1.73183e-04
 Reference value :  1.73250e-04
 Reference value :  1.73250e-04
 Reference value :  1.73250e-04
 Reference value :  1.73250e-04
 Reference value :  1.73251e-04
 Reference value :  1.73251e-04
 Reference value :  1.73252e-04
 Reference value :  1.73253e-04
 Reference value :  1.73255e-04
 Reference value :  1.73257e-04
 Reference value :  1.73265e-04
 Reference value :  1.73313e-04
 Reference value :  1.73500e-04
 Reference value :  1.73500e-04
 Reference value :  1.73500e-04
 Reference value :  1.73500e-04
 Reference value :  1.73501e-04
 Reference value :  1.73502e-04
 Reference value :  1.73503e-04
 Reference value :  1.73505e-04
 Reference value :  1.73506e-04
 Reference value :  1.73508e-04
 Reference value :  1.73511e-04
 Reference value :  1.73521e-04
 Reference value :  1.73583e-04
 Reference value :  1.73750e-04
 Reference value :  1.73750e-04
 Reference value :  1.73750e-04
 Reference value :  1.73751e-04
 Reference value :  1.73753e-04
 Reference value :  1.73754e-04
 Reference value :  1.73755e-04
 Reference value :  1.73757e-04
 Reference value :  1.73764e-04
 Reference value :  1.73807e-04
 Reference value :  1.74000e-04
 Reference value :  1.74000e-04
 Reference value :  1.74000e-04
 Reference value :  1.74001e-04
 Reference value :  1.74001e-04
 Reference value :  1.74002e-04
 Reference value :  1.74002e-04
 Reference value :  1.74003e-04
 Reference value :  1.74004e-04
 Reference value :  1.74006e-04
 Reference value :  1.74008e-04
 Reference value :  1.74011e-04
 Reference value :  1.74013e-04
 Reference value :  1.74015e-04
 Reference value :  1.74017e-04
 Reference value :  1.74024e-04
 Reference value :  1.74071e-04
 Reference value :  1.74114e-04
 Reference value :  1.74250e-04
 Reference value :  1.74250e-04
 Reference value :  1.74250e-04
 Reference value :  1.74250e-04
 Reference value :  1.74251e-04
 Reference value :  1.74252e-04
 Reference value :  1.74253e-04
 Reference value :  1.74254e-04
 Reference value :  1.74255e-04
 Reference value :  1.74259e-04
 Reference value :  1.74287e-04
 Reference value :  1.74488e-04
 Reference value :  1.74500e-04
 Reference value :  1.74500e-04
 Reference value :  1.74500e-04
 Reference value :  1.74501e-04
 Reference value :  1.74502e-04
 Reference value :  1.74503e-04
 Reference value :  1.74505e-04
 Reference value :  1.74506e-04
 Reference value :  1.74508e-04
 Reference value :  1.74511e-04
 Reference value :  1.74530e-04
 Reference value :  1.74750e-04
 Reference value :  1.74750e-04
 Reference value :  1.74750e-04
 Reference value :  1.74750e-04
 Reference value :  1.74751e-04
 Reference value :  1.74751e-04
 Reference value :  1.74753e-04
 Reference value :  1.74753e-04
 Reference value :  1.74754e-04
 Reference value :  1.74756e-04
 Reference value :  1.74764e-04
 Reference value :  1.74807e-04
 Reference value :  1.74957e-04
 Reference value :  1.75000e-04
 Reference value :  1.75000e-04
 Reference value :  1.75000e-04
 Reference value :  1.75001e-04
 Reference value :  1.75001e-04
 Reference value :  1.75002e-04
 Reference value :  1.75003e-04
 Reference value :  1.75004e-04
 Reference value :  1.75005e-04
 Reference value :  1.75006e-04
 Reference value :  1.75010e-04
 Reference value :  1.75012e-04
 Reference value :  1.75014e-04
 Reference value :  1.75016e-04
 Reference value :  1.75021e-04
 Reference value :  1.75036e-04
 Reference value :  1.75104e-04
 Reference value :  1.75250e-04
 Reference value :  1.75250e-04
 Reference value :  1.75250e-04
 Reference value :  1.75251e-04
 Reference value :  1.75251e-04
 Reference value :  1.75253e-04
 Reference value :  1.75254e-04
 Reference value :  1.75255e-04
 Reference value :  1.75259e-04
 Reference value :  1.75287e-04
 Reference value :  1.75500e-04
 Reference value :  1.75500e-04
 Reference value :  1.75500e-04
 Reference value :  1.75501e-04
 Reference value :  1.75502e-04
 Reference value :  1.75503e-04
 Reference value :  1.75504e-04
 Reference value :  1.75506e-04
 Reference value :  1.75508e-04
 Reference value :  1.75511e-04
 Reference value :  1.75530e-04
 Reference value :  1.75750e-04
 Reference value :  1.75750e-04
 Reference value :  1.75750e-04
 Reference value :  1.75751e-04
 Reference value :  1.75751e-04
 Reference value :  1.75753e-04
 Reference value :  1.75754e-04
 Reference value :  1.75756e-04
 Reference value :  1.75764e-04
 Reference value :  1.75857e-04
 Reference value :  1.76000e-04
 Reference value :  1.76000e-04
 Reference value :  1.76001e-04
 Reference value :  1.76001e-04
 Reference value :  1.76002e-04
 Reference value :  1.76003e-04
 Reference value :  1.76004e-04
 Reference value :  1.76005e-04
 Reference value :  1.76007e-04
 Reference value :  1.76011e-04
 Reference value :  1.76013e-04
 Reference value :  1.76015e-04
 Reference value :  1.76019e-04
 Reference value :  1.76036e-04
 Reference value :  1.76079e-04
 Reference value :  1.76250e-04
 Reference value :  1.76250e-04
 Reference value :  1.76250e-04
 Reference value :  1.76251e-04
 Reference value :  1.76252e-04
 Reference value :  1.76253e-04
 Reference value :  1.76254e-04
 Reference value :  1.76255e-04
 Reference value :  1.76259e-04
 Reference value :  1.76272e-04
 Reference value :  1.76488e-04
 Reference value :  1.76500e-04
 Reference value :  1.76500e-04
 Reference value :  1.76500e-04
 Reference value :  1.76501e-04
 Reference value :  1.76502e-04
 Reference value :  1.76503e-04
 Reference value :  1.76504e-04
 Reference value :  1.76506e-04
 Reference value :  1.76507e-04
 Reference value :  1.76509e-04
 Reference value :  1.76515e-04
 Reference value :  1.76582e-04
 Reference value :  1.76750e-04
 Reference value :  1.76750e-04
 Reference value :  1.76750e-04
 Reference value :  1.76751e-04
 Reference value :  1.76751e-04
 Reference value :  1.76753e-04
 Reference value :  1.76754e-04
 Reference value :  1.76755e-04
 Reference value :  1.76757e-04
 Reference value :  1.76764e-04
 Reference value :  1.76807e-04
 Reference value :  1.77000e-04
 Reference value :  1.77000e-04
 Reference value :  1.77000e-04
 Reference value :  1.77000e-04
 Reference value :  1.77001e-04
 Reference value :  1.77001e-04
 Reference value :  1.77002e-04
 Reference value :  1.77003e-04
 Reference value :  1.77004e-04
 Reference value :  1.77005e-04
 Reference value :  1.77007e-04
 Reference value :  1.77011e-04
 Reference value :  1.77013e-04
 Reference value :  1.77015e-04
 Reference value :  1.77019e-04
 Reference value :  1.77029e-04
 Reference value :  1.77074e-04
 Reference value :  1.77250e-04
 Reference value :  1.77250e-04
 Reference value :  1.77250e-04
 Reference value :  1.77250e-04
 Reference value :  1.77250e-04
 Reference value :  1.77251e-04
 Reference value :  1.77251e-04
 Reference value :  1.77252e-04
 Reference value :  1.77253e-04
 Reference value :  1.77253e-04
 Reference value :  1.77255e-04
 Reference value :  1.77256e-04
 Reference value :  1.77259e-04
 Reference value :  1.77272e-04
 Reference value :  1.77372e-04
 Reference value :  1.77500e-04
 Reference value :  1.77500e-04
 Reference value :  1.77500e-04
 Reference value :  1.77500e-04
 Reference value :  1.77501e-04
 Reference value :  1.77502e-04
 Reference value :  1.77502e-04
 Reference value :  1.77503e-04
 Reference value :  1.77505e-04
 Reference value :  1.77506e-04
 Reference value :  1.77508e-04
 Reference value :  1.77511e-04
 Reference value :  1.77529e-04
 Reference value :  1.77750e-04
 Reference value :  1.77750e-04
 Reference value :  1.77750e-04
 Reference value :  1.77751e-04
 Reference value :  1.77752e-04
 Reference value :  1.77753e-04
 Reference value :  1.77754e-04
 Reference value :  1.77755e-04
 Reference value :  1.77758e-04
 Reference value :  1.77782e-04
 Reference value :  1.78000e-04
 Reference value :  1.78000e-04
 Reference value :  1.78000e-04
 Reference value :  1.78001e-04
 Reference value :  1.78002e-04
 Reference value :  1.78003e-04
 Reference value :  1.78005e-04
 Reference value :  1.78006e-04
 Reference value :  1.78008e-04
 Reference value :  1.78010e-04
 Reference value :  1.78037e-04
 Reference value :  1.78250e-04
 Reference value :  1.78250e-04
 Reference value :  1.78250e-04
 Reference value :  1.78251e-04
 Reference value :  1.78253e-04
 Reference value :  1.78255e-04
 Reference value :  1.78256e-04
 Reference value :  1.78262e-04
 Reference value :  1.78291e-04
 Reference value :  1.78500e-04
No. of Data Rows : 25958
ngspice-44 done
