
Note: Compatibility modes selected: hs a


Circuit: ** sch_path: /home/audrey/cace/sar-adc-using-sky130-pdk/runs/run_2025-09-09_11-58-32/parameters/power/run_0/power_consumption.sch

option SCALE: Scale is set to 1e-06 for instance and model parameters
option SCALE: Scale is set to 1e-06 for instance and model parameters
option SCALE: Scale is set to 1e-06 for instance and model parameters
option SCALE: Scale is set to 1e-06 for instance and model parameters
Doing analysis at TEMP = 27.000000 and TNOM = 27.000000

Using KLU as Direct Linear Solver
 Reference value :  0.00000e+00
 Reference value :  1.00000e-12
 Reference value :  2.00000e-12
 Reference value :  8.00000e-12
 Reference value :  1.60000e-11
 Reference value :  6.40000e-11
 Reference value :  1.00000e-10
 Reference value :  1.19200e-10
 Reference value :  1.96000e-10
 Reference value :  2.98400e-10
 Reference value :  4.69057e-10
 Reference value :  7.15253e-10
 Reference value :  9.85429e-10
 Reference value :  1.39986e-09
 Reference value :  1.83849e-09
 Reference value :  2.29421e-09
 Reference value :  2.70346e-09
 Reference value :  3.14668e-09
 Reference value :  3.63929e-09
 Reference value :  4.16462e-09
 Reference value :  4.71202e-09
 Reference value :  5.38783e-09
 Reference value :  6.13631e-09
 Reference value :  6.97510e-09
 Reference value :  7.79162e-09
 Reference value :  8.63969e-09
 Reference value :  9.57515e-09
 Reference value :  1.06028e-08
 Reference value :  1.15129e-08
 Reference value :  1.22444e-08
 Reference value :  1.30122e-08
 Reference value :  1.49284e-08
 Reference value :  1.80258e-08
 Reference value :  2.04332e-08
 Reference value :  3.01671e-08
 Reference value :  3.98188e-08
 Reference value :  8.21346e-08
 Reference value :  1.18993e-07
 Reference value :  1.86196e-07
 Reference value :  2.50110e-07
 Reference value :  2.50130e-07
 Reference value :  2.50170e-07
 Reference value :  2.50200e-07
 Reference value :  2.50220e-07
 Reference value :  2.50300e-07
 Reference value :  2.50407e-07
 Reference value :  2.50522e-07
 Reference value :  2.50752e-07
 Reference value :  2.51422e-07
 Reference value :  2.51839e-07
 Reference value :  2.52920e-07
 Reference value :  2.53546e-07
 Reference value :  2.54101e-07
 Reference value :  2.54687e-07
 Reference value :  2.55277e-07
 Reference value :  2.56060e-07
 Reference value :  2.56887e-07
 Reference value :  2.58048e-07
 Reference value :  2.62164e-07
 Reference value :  2.65303e-07
 Reference value :  2.71581e-07
 Reference value :  2.81548e-07
 Reference value :  3.28906e-07
 Reference value :  4.68592e-07
 Reference value :  5.00000e-07
 Reference value :  5.00030e-07
 Reference value :  5.00070e-07
 Reference value :  5.00108e-07
 Reference value :  5.00124e-07
 Reference value :  5.00156e-07
 Reference value :  5.00220e-07
 Reference value :  5.00348e-07
 Reference value :  5.00537e-07
 Reference value :  5.00857e-07
 Reference value :  5.01567e-07
 Reference value :  5.02000e-07
 Reference value :  5.02478e-07
 Reference value :  5.02983e-07
 Reference value :  5.03560e-07
 Reference value :  5.04109e-07
 Reference value :  5.04896e-07
 Reference value :  5.05618e-07
 Reference value :  5.07062e-07
 Reference value :  5.08634e-07
 Reference value :  5.09869e-07
 Reference value :  5.11247e-07
 Reference value :  5.12624e-07
 Reference value :  5.14299e-07
 Reference value :  5.16174e-07
 Reference value :  5.18089e-07
 Reference value :  5.26042e-07
 Reference value :  5.33910e-07
 Reference value :  5.69016e-07
 Reference value :  6.11433e-07
 Reference value :  6.96268e-07
 Reference value :  7.50110e-07
 Reference value :  7.50130e-07
 Reference value :  7.50170e-07
 Reference value :  7.50200e-07
 Reference value :  7.50208e-07
 Reference value :  7.50224e-07
 Reference value :  7.50256e-07
 Reference value :  7.50320e-07
 Reference value :  7.50448e-07
 Reference value :  7.50703e-07
 Reference value :  7.51109e-07
 Reference value :  7.51576e-07
 Reference value :  7.52040e-07
 Reference value :  7.52526e-07
 Reference value :  7.53260e-07
 Reference value :  7.53777e-07
 Reference value :  7.54359e-07
 Reference value :  7.54920e-07
 Reference value :  7.55509e-07
 Reference value :  7.56262e-07
 Reference value :  7.57071e-07
 Reference value :  7.57939e-07
 Reference value :  7.58957e-07
 Reference value :  7.60505e-07
 Reference value :  7.62153e-07
 Reference value :  7.64953e-07
 Reference value :  7.68232e-07
 Reference value :  7.74791e-07
 Reference value :  7.87907e-07
 Reference value :  8.12709e-07
 Reference value :  9.61522e-07
 Reference value :  1.00001e-06
 Reference value :  1.00003e-06
 Reference value :  1.00007e-06
 Reference value :  1.00011e-06
 Reference value :  1.00012e-06
 Reference value :  1.00016e-06
 Reference value :  1.00022e-06
 Reference value :  1.00054e-06
 Reference value :  1.00086e-06
 Reference value :  1.00119e-06
 Reference value :  1.00162e-06
 Reference value :  1.00208e-06
 Reference value :  1.00257e-06
 Reference value :  1.00307e-06
 Reference value :  1.00362e-06
 Reference value :  1.00418e-06
 Reference value :  1.00469e-06
 Reference value :  1.00517e-06
 Reference value :  1.00571e-06
 Reference value :  1.00636e-06
 Reference value :  1.00706e-06
 Reference value :  1.00804e-06
 Reference value :  1.00919e-06
 Reference value :  1.01007e-06
 Reference value :  1.01102e-06
 Reference value :  1.01193e-06
 Reference value :  1.01295e-06
 Reference value :  1.01367e-06
 Reference value :  1.01521e-06
 Reference value :  1.01612e-06
 Reference value :  1.01702e-06
 Reference value :  1.01796e-06
 Reference value :  1.01896e-06
 Reference value :  1.02060e-06
 Reference value :  1.02236e-06
 Reference value :  1.02513e-06
 Reference value :  1.03067e-06
 Reference value :  1.03820e-06
 Reference value :  1.05215e-06
 Reference value :  1.12511e-06
 Reference value :  1.25010e-06
 Reference value :  1.25013e-06
 Reference value :  1.25017e-06
 Reference value :  1.25020e-06
 Reference value :  1.25021e-06
 Reference value :  1.25026e-06
 Reference value :  1.25032e-06
 Reference value :  1.25045e-06
 Reference value :  1.25070e-06
 Reference value :  1.25157e-06
 Reference value :  1.25203e-06
 Reference value :  1.25252e-06
 Reference value :  1.25325e-06
 Reference value :  1.25376e-06
 Reference value :  1.25503e-06
 Reference value :  1.25572e-06
 Reference value :  1.25648e-06
 Reference value :  1.25801e-06
 Reference value :  1.26254e-06
 Reference value :  1.27267e-06
 Reference value :  1.31319e-06
 Reference value :  1.47527e-06
 Reference value :  1.50001e-06
 Reference value :  1.50003e-06
 Reference value :  1.50010e-06
 Reference value :  1.50012e-06
 Reference value :  1.50016e-06
 Reference value :  1.50022e-06
 Reference value :  1.50035e-06
 Reference value :  1.50086e-06
 Reference value :  1.50119e-06
 Reference value :  1.50158e-06
 Reference value :  1.50202e-06
 Reference value :  1.50250e-06
 Reference value :  1.50299e-06
 Reference value :  1.50355e-06
 Reference value :  1.50486e-06
 Reference value :  1.50558e-06
 Reference value :  1.50622e-06
 Reference value :  1.50692e-06
 Reference value :  1.50790e-06
 Reference value :  1.50881e-06
 Reference value :  1.50983e-06
 Reference value :  1.51102e-06
 Reference value :  1.51221e-06
 Reference value :  1.51458e-06
 Reference value :  1.51869e-06
 Reference value :  1.52608e-06
 Reference value :  1.57042e-06
 Reference value :  1.74625e-06
 Reference value :  1.75011e-06
 Reference value :  1.75013e-06
 Reference value :  1.75017e-06
 Reference value :  1.75020e-06
 Reference value :  1.75022e-06
 Reference value :  1.75032e-06
 Reference value :  1.75070e-06
 Reference value :  1.75110e-06
 Reference value :  1.75157e-06
 Reference value :  1.75203e-06
 Reference value :  1.75252e-06
 Reference value :  1.75325e-06
 Reference value :  1.75377e-06
 Reference value :  1.75436e-06
 Reference value :  1.75491e-06
 Reference value :  1.75549e-06
 Reference value :  1.75624e-06
 Reference value :  1.75705e-06
 Reference value :  1.75787e-06
 Reference value :  1.75890e-06
 Reference value :  1.76052e-06
 Reference value :  1.76213e-06
 Reference value :  1.76813e-06
 Reference value :  1.78579e-06
 Reference value :  1.84553e-06
 Reference value :  2.00000e-06
 Reference value :  2.00001e-06
 Reference value :  2.00003e-06
 Reference value :  2.00007e-06
 Reference value :  2.00010e-06
 Reference value :  2.00011e-06
 Reference value :  2.00012e-06
 Reference value :  2.00016e-06
 Reference value :  2.00022e-06
 Reference value :  2.00054e-06
 Reference value :  2.00086e-06
 Reference value :  2.00119e-06
 Reference value :  2.00162e-06
 Reference value :  2.00208e-06
 Reference value :  2.00257e-06
 Reference value :  2.00307e-06
 Reference value :  2.00363e-06
 Reference value :  2.00418e-06
 Reference value :  2.00469e-06
 Reference value :  2.00517e-06
 Reference value :  2.00571e-06
 Reference value :  2.00706e-06
 Reference value :  2.00804e-06
 Reference value :  2.00919e-06
 Reference value :  2.01007e-06
 Reference value :  2.01102e-06
 Reference value :  2.01192e-06
 Reference value :  2.01294e-06
 Reference value :  2.01366e-06
 Reference value :  2.01434e-06
 Reference value :  2.01520e-06
 Reference value :  2.01610e-06
 Reference value :  2.01699e-06
 Reference value :  2.01794e-06
 Reference value :  2.01893e-06
 Reference value :  2.02055e-06
 Reference value :  2.02503e-06
 Reference value :  2.03792e-06
 Reference value :  2.07496e-06
 Reference value :  2.17167e-06
 Reference value :  2.24442e-06
 Reference value :  2.25011e-06
 Reference value :  2.25017e-06
 Reference value :  2.25020e-06
 Reference value :  2.25022e-06
 Reference value :  2.25032e-06
 Reference value :  2.25045e-06
 Reference value :  2.25070e-06
 Reference value :  2.25110e-06
 Reference value :  2.25157e-06
 Reference value :  2.25203e-06
 Reference value :  2.25251e-06
 Reference value :  2.25325e-06
 Reference value :  2.25375e-06
 Reference value :  2.25433e-06
 Reference value :  2.25504e-06
 Reference value :  2.25572e-06
 Reference value :  2.25805e-06
 Reference value :  2.26259e-06
 Reference value :  2.27274e-06
 Reference value :  2.31335e-06
 Reference value :  2.36750e-06
 Reference value :  2.45868e-06
 Reference value :  2.50000e-06
 Reference value :  2.50003e-06
 Reference value :  2.50010e-06
 Reference value :  2.50011e-06
 Reference value :  2.50016e-06
 Reference value :  2.50022e-06
 Reference value :  2.50054e-06
 Reference value :  2.50086e-06
 Reference value :  2.50119e-06
 Reference value :  2.50158e-06
 Reference value :  2.50202e-06
 Reference value :  2.50250e-06
 Reference value :  2.50299e-06
 Reference value :  2.50355e-06
 Reference value :  2.50410e-06
 Reference value :  2.50486e-06
 Reference value :  2.50558e-06
 Reference value :  2.50622e-06
 Reference value :  2.50692e-06
 Reference value :  2.50790e-06
 Reference value :  2.50881e-06
 Reference value :  2.50983e-06
 Reference value :  2.51102e-06
 Reference value :  2.51458e-06
 Reference value :  2.52612e-06
 Reference value :  2.57069e-06
 Reference value :  2.74631e-06
 Reference value :  2.75011e-06
 Reference value :  2.75017e-06
 Reference value :  2.75020e-06
 Reference value :  2.75022e-06
 Reference value :  2.75032e-06
 Reference value :  2.75045e-06
 Reference value :  2.75070e-06
 Reference value :  2.75110e-06
 Reference value :  2.75157e-06
 Reference value :  2.75203e-06
 Reference value :  2.75325e-06
 Reference value :  2.75377e-06
 Reference value :  2.75435e-06
 Reference value :  2.75490e-06
 Reference value :  2.75548e-06
 Reference value :  2.75623e-06
 Reference value :  2.75704e-06
 Reference value :  2.75786e-06
 Reference value :  2.75889e-06
 Reference value :  2.76046e-06
 Reference value :  2.76209e-06
 Reference value :  2.76802e-06
 Reference value :  2.77436e-06
 Reference value :  2.78516e-06
 Reference value :  2.80386e-06
 Reference value :  2.84126e-06
 Reference value :  2.91605e-06
 Reference value :  3.00000e-06
 Reference value :  3.00001e-06
 Reference value :  3.00003e-06
 Reference value :  3.00007e-06
 Reference value :  3.00010e-06
 Reference value :  3.00011e-06
 Reference value :  3.00016e-06
 Reference value :  3.00022e-06
 Reference value :  3.00035e-06
 Reference value :  3.00054e-06
 Reference value :  3.00086e-06
 Reference value :  3.00119e-06
 Reference value :  3.00162e-06
 Reference value :  3.00208e-06
 Reference value :  3.00257e-06
 Reference value :  3.00307e-06
 Reference value :  3.00363e-06
 Reference value :  3.00418e-06
 Reference value :  3.00469e-06
 Reference value :  3.00517e-06
 Reference value :  3.00572e-06
 Reference value :  3.00636e-06
 Reference value :  3.00804e-06
 Reference value :  3.00919e-06
 Reference value :  3.01007e-06
 Reference value :  3.01102e-06
 Reference value :  3.01192e-06
 Reference value :  3.01293e-06
 Reference value :  3.01365e-06
 Reference value :  3.01433e-06
 Reference value :  3.01518e-06
 Reference value :  3.01608e-06
 Reference value :  3.01697e-06
 Reference value :  3.01793e-06
 Reference value :  3.01892e-06
 Reference value :  3.02052e-06
 Reference value :  3.02228e-06
 Reference value :  3.02497e-06
 Reference value :  3.03778e-06
 Reference value :  3.05136e-06
 Reference value :  3.07388e-06
 Reference value :  3.09705e-06
 Reference value :  3.12052e-06
 Reference value :  3.14939e-06
 Reference value :  3.22077e-06
 Reference value :  3.25010e-06
 Reference value :  3.25011e-06
 Reference value :  3.25017e-06
 Reference value :  3.25020e-06
 Reference value :  3.25022e-06
 Reference value :  3.25026e-06
 Reference value :  3.25032e-06
 Reference value :  3.25045e-06
 Reference value :  3.25070e-06
 Reference value :  3.25109e-06
 Reference value :  3.25157e-06
 Reference value :  3.25203e-06
 Reference value :  3.25251e-06
 Reference value :  3.25324e-06
 Reference value :  3.25375e-06
 Reference value :  3.25433e-06
 Reference value :  3.25504e-06
 Reference value :  3.25571e-06
 Reference value :  3.25650e-06
 Reference value :  3.25807e-06
 Reference value :  3.25973e-06
 Reference value :  3.26602e-06
 Reference value :  3.28636e-06
 Reference value :  3.36771e-06
 Reference value :  3.50000e-06
 Reference value :  3.50003e-06
 Reference value :  3.50007e-06
 Reference value :  3.50010e-06
 Reference value :  3.50012e-06
 Reference value :  3.50022e-06
 Reference value :  3.50035e-06
 Reference value :  3.50086e-06
 Reference value :  3.50119e-06
 Reference value :  3.50158e-06
 Reference value :  3.50202e-06
 Reference value :  3.50250e-06
 Reference value :  3.50299e-06
 Reference value :  3.50355e-06
 Reference value :  3.50410e-06
 Reference value :  3.50486e-06
 Reference value :  3.50558e-06
 Reference value :  3.50622e-06
 Reference value :  3.50692e-06
 Reference value :  3.50791e-06
 Reference value :  3.50881e-06
 Reference value :  3.50984e-06
 Reference value :  3.51101e-06
 Reference value :  3.51459e-06
 Reference value :  3.51869e-06
 Reference value :  3.54102e-06
 Reference value :  3.62915e-06
 Reference value :  3.75010e-06
 Reference value :  3.75011e-06
 Reference value :  3.75013e-06
 Reference value :  3.75020e-06
 Reference value :  3.75021e-06
 Reference value :  3.75026e-06
 Reference value :  3.75045e-06
 Reference value :  3.75070e-06
 Reference value :  3.75109e-06
 Reference value :  3.75157e-06
 Reference value :  3.75203e-06
 Reference value :  3.75251e-06
 Reference value :  3.75324e-06
 Reference value :  3.75377e-06
 Reference value :  3.75435e-06
 Reference value :  3.75490e-06
 Reference value :  3.75548e-06
 Reference value :  3.75622e-06
 Reference value :  3.75704e-06
 Reference value :  3.75785e-06
 Reference value :  3.75889e-06
 Reference value :  3.76043e-06
 Reference value :  3.76207e-06
 Reference value :  3.76797e-06
 Reference value :  3.78485e-06
 Reference value :  3.83909e-06
 Reference value :  4.00000e-06
 Reference value :  4.00001e-06
 Reference value :  4.00007e-06
 Reference value :  4.00011e-06
 Reference value :  4.00012e-06
 Reference value :  4.00016e-06
 Reference value :  4.00022e-06
 Reference value :  4.00054e-06
 Reference value :  4.00086e-06
 Reference value :  4.00119e-06
 Reference value :  4.00162e-06
 Reference value :  4.00208e-06
 Reference value :  4.00257e-06
 Reference value :  4.00307e-06
 Reference value :  4.00363e-06
 Reference value :  4.00418e-06
 Reference value :  4.00469e-06
 Reference value :  4.00518e-06
 Reference value :  4.00572e-06
 Reference value :  4.00707e-06
 Reference value :  4.00804e-06
 Reference value :  4.00919e-06
 Reference value :  4.01007e-06
 Reference value :  4.01102e-06
 Reference value :  4.01192e-06
 Reference value :  4.01293e-06
 Reference value :  4.01365e-06
 Reference value :  4.01433e-06
 Reference value :  4.01518e-06
 Reference value :  4.01608e-06
 Reference value :  4.01802e-06
 Reference value :  4.01898e-06
 Reference value :  4.02071e-06
 Reference value :  4.02526e-06
 Reference value :  4.03815e-06
 Reference value :  4.06278e-06
 Reference value :  4.09725e-06
 Reference value :  4.11192e-06
 Reference value :  4.14915e-06
 Reference value :  4.21913e-06
 Reference value :  4.25011e-06
 Reference value :  4.25017e-06
 Reference value :  4.25021e-06
 Reference value :  4.25026e-06
 Reference value :  4.25045e-06
 Reference value :  4.25109e-06
 Reference value :  4.25203e-06
 Reference value :  4.25324e-06
 Reference value :  4.25375e-06
 Reference value :  4.25433e-06
 Reference value :  4.25505e-06
 Reference value :  4.25651e-06
 Reference value :  4.25975e-06
 Reference value :  4.26605e-06
 Reference value :  4.28641e-06
 Reference value :  4.36787e-06
 Reference value :  4.50000e-06
 Reference value :  4.50003e-06
 Reference value :  4.50010e-06
 Reference value :  4.50012e-06
 Reference value :  4.50022e-06
 Reference value :  4.50054e-06
 Reference value :  4.50086e-06
 Reference value :  4.50119e-06
 Reference value :  4.50158e-06
 Reference value :  4.50250e-06
 Reference value :  4.50299e-06
 Reference value :  4.50355e-06
 Reference value :  4.50410e-06
 Reference value :  4.50558e-06
 Reference value :  4.50623e-06
 Reference value :  4.50791e-06
 Reference value :  4.50881e-06
 Reference value :  4.50984e-06
 Reference value :  4.51101e-06
 Reference value :  4.51459e-06
 Reference value :  4.52613e-06
 Reference value :  4.57059e-06
 Reference value :  4.74603e-06
 Reference value :  4.75011e-06
 Reference value :  4.75013e-06
 Reference value :  4.75020e-06
 Reference value :  4.75022e-06
 Reference value :  4.75032e-06
 Reference value :  4.75070e-06
 Reference value :  4.75109e-06
 Reference value :  4.75156e-06
 Reference value :  4.75203e-06
 Reference value :  4.75251e-06
 Reference value :  4.75324e-06
 Reference value :  4.75376e-06
 Reference value :  4.75435e-06
 Reference value :  4.75490e-06
 Reference value :  4.75622e-06
 Reference value :  4.75704e-06
 Reference value :  4.75785e-06
 Reference value :  4.75889e-06
 Reference value :  4.76042e-06
 Reference value :  4.76206e-06
 Reference value :  4.76477e-06
 Reference value :  4.77427e-06
 Reference value :  4.78466e-06
 Reference value :  4.83773e-06
 Reference value :  5.00000e-06
 Reference value :  5.00001e-06
 Reference value :  5.00003e-06
 Reference value :  5.00010e-06
 Reference value :  5.00012e-06
 Reference value :  5.00016e-06
 Reference value :  5.00035e-06
 Reference value :  5.00054e-06
 Reference value :  5.00086e-06
 Reference value :  5.00119e-06
 Reference value :  5.00162e-06
 Reference value :  5.00208e-06
 Reference value :  5.00257e-06
 Reference value :  5.00307e-06
 Reference value :  5.00363e-06
 Reference value :  5.00418e-06
 Reference value :  5.00518e-06
 Reference value :  5.00572e-06
 Reference value :  5.00636e-06
 Reference value :  5.00804e-06
 Reference value :  5.00919e-06
 Reference value :  5.01007e-06
 Reference value :  5.01102e-06
 Reference value :  5.01192e-06
 Reference value :  5.01293e-06
 Reference value :  5.01364e-06
 Reference value :  5.01432e-06
 Reference value :  5.01517e-06
 Reference value :  5.01607e-06
 Reference value :  5.01695e-06
 Reference value :  5.01800e-06
 Reference value :  5.01896e-06
 Reference value :  5.02242e-06
 Reference value :  5.02518e-06
 Reference value :  5.03072e-06
 Reference value :  5.03801e-06
 Reference value :  5.04757e-06
 Reference value :  5.05962e-06
 Reference value :  5.06762e-06
 Reference value :  5.07735e-06
 Reference value :  5.11002e-06
 Reference value :  5.16133e-06
 Reference value :  5.25010e-06
 Reference value :  5.25013e-06
 Reference value :  5.25017e-06
 Reference value :  5.25021e-06
 Reference value :  5.25026e-06
 Reference value :  5.25045e-06
 Reference value :  5.25109e-06
 Reference value :  5.25202e-06
 Reference value :  5.25251e-06
 Reference value :  5.25324e-06
 Reference value :  5.25375e-06
 Reference value :  5.25505e-06
 Reference value :  5.25651e-06
 Reference value :  5.25975e-06
 Reference value :  5.27286e-06
 Reference value :  5.31364e-06
 Reference value :  5.47672e-06
 Reference value :  5.50000e-06
 Reference value :  5.50003e-06
 Reference value :  5.50010e-06
 Reference value :  5.50011e-06
 Reference value :  5.50012e-06
 Reference value :  5.50022e-06
 Reference value :  5.50054e-06
 Reference value :  5.50086e-06
 Reference value :  5.50119e-06
 Reference value :  5.50158e-06
 Reference value :  5.50202e-06
 Reference value :  5.50250e-06
 Reference value :  5.50299e-06
 Reference value :  5.50355e-06
 Reference value :  5.50410e-06
 Reference value :  5.50558e-06
 Reference value :  5.50623e-06
 Reference value :  5.50791e-06
 Reference value :  5.50881e-06
 Reference value :  5.51101e-06
 Reference value :  5.51459e-06
 Reference value :  5.52613e-06
 Reference value :  5.57055e-06
 Reference value :  5.62900e-06
 Reference value :  5.75010e-06
 Reference value :  5.75013e-06
 Reference value :  5.75017e-06
 Reference value :  5.75021e-06
 Reference value :  5.75026e-06
 Reference value :  5.75045e-06
 Reference value :  5.75109e-06
 Reference value :  5.75203e-06
 Reference value :  5.75251e-06
 Reference value :  5.75376e-06
 Reference value :  5.75435e-06
 Reference value :  5.75490e-06
 Reference value :  5.75548e-06
 Reference value :  5.75622e-06
 Reference value :  5.75785e-06
 Reference value :  5.75888e-06
 Reference value :  5.76040e-06
 Reference value :  5.76475e-06
 Reference value :  5.77424e-06
 Reference value :  5.80196e-06
 Reference value :  5.90656e-06
 Reference value :  6.00001e-06
 Reference value :  6.00003e-06
 Reference value :  6.00007e-06
 Reference value :  6.00011e-06
 Reference value :  6.00016e-06
 Reference value :  6.00035e-06
 Reference value :  6.00054e-06
 Reference value :  6.00086e-06
 Reference value :  6.00119e-06
 Reference value :  6.00162e-06
 Reference value :  6.00208e-06
 Reference value :  6.00257e-06
 Reference value :  6.00307e-06
 Reference value :  6.00363e-06
 Reference value :  6.00418e-06
 Reference value :  6.00469e-06
 Reference value :  6.00518e-06
 Reference value :  6.00572e-06
 Reference value :  6.00636e-06
 Reference value :  6.00707e-06
 Reference value :  6.00804e-06
 Reference value :  6.00919e-06
 Reference value :  6.01007e-06
 Reference value :  6.01102e-06
 Reference value :  6.01192e-06
 Reference value :  6.01293e-06
 Reference value :  6.01364e-06
 Reference value :  6.01517e-06
 Reference value :  6.01607e-06
 Reference value :  6.01696e-06
 Reference value :  6.01801e-06
 Reference value :  6.01897e-06
 Reference value :  6.02068e-06
 Reference value :  6.02520e-06
 Reference value :  6.03075e-06
 Reference value :  6.03467e-06
 Reference value :  6.03877e-06
 Reference value :  6.04322e-06
 Reference value :  6.05031e-06
 Reference value :  6.05961e-06
 Reference value :  6.07547e-06
 Reference value :  6.10120e-06
 Reference value :  6.15267e-06
 Reference value :  6.21976e-06
 Reference value :  6.25011e-06
 Reference value :  6.25017e-06
 Reference value :  6.25021e-06
 Reference value :  6.25026e-06
 Reference value :  6.25032e-06
 Reference value :  6.25070e-06
 Reference value :  6.25109e-06
 Reference value :  6.25156e-06
 Reference value :  6.25202e-06
 Reference value :  6.25251e-06
 Reference value :  6.25323e-06
 Reference value :  6.25374e-06
 Reference value :  6.25432e-06
 Reference value :  6.25505e-06
 Reference value :  6.25651e-06
 Reference value :  6.25811e-06
 Reference value :  6.26269e-06
 Reference value :  6.27289e-06
 Reference value :  6.31369e-06
 Reference value :  6.47687e-06
 Reference value :  6.50001e-06
 Reference value :  6.50007e-06
 Reference value :  6.50011e-06
 Reference value :  6.50012e-06
 Reference value :  6.50022e-06
 Reference value :  6.50054e-06
 Reference value :  6.50086e-06
 Reference value :  6.50158e-06
 Reference value :  6.50250e-06
 Reference value :  6.50299e-06
 Reference value :  6.50355e-06
 Reference value :  6.50410e-06
 Reference value :  6.50486e-06
 Reference value :  6.50558e-06
 Reference value :  6.50623e-06
 Reference value :  6.50692e-06
 Reference value :  6.50791e-06
 Reference value :  6.50881e-06
 Reference value :  6.50984e-06
 Reference value :  6.51101e-06
 Reference value :  6.51459e-06
 Reference value :  6.52613e-06
 Reference value :  6.57050e-06
 Reference value :  6.74580e-06
 Reference value :  6.75011e-06
 Reference value :  6.75013e-06
 Reference value :  6.75017e-06
 Reference value :  6.75021e-06
 Reference value :  6.75026e-06
 Reference value :  6.75045e-06
 Reference value :  6.75109e-06
 Reference value :  6.75156e-06
 Reference value :  6.75203e-06
 Reference value :  6.75251e-06
 Reference value :  6.75324e-06
 Reference value :  6.75376e-06
 Reference value :  6.75489e-06
 Reference value :  6.75622e-06
 Reference value :  6.75785e-06
 Reference value :  6.75888e-06
 Reference value :  6.76204e-06
 Reference value :  6.76790e-06
 Reference value :  6.77423e-06
 Reference value :  6.80168e-06
 Reference value :  6.90517e-06
 Reference value :  7.00001e-06
 Reference value :  7.00007e-06
 Reference value :  7.00011e-06
 Reference value :  7.00016e-06
 Reference value :  7.00035e-06
 Reference value :  7.00054e-06
 Reference value :  7.00086e-06
 Reference value :  7.00119e-06
 Reference value :  7.00162e-06
 Reference value :  7.00208e-06
 Reference value :  7.00307e-06
 Reference value :  7.00363e-06
 Reference value :  7.00469e-06
 Reference value :  7.00518e-06
 Reference value :  7.00636e-06
 Reference value :  7.00707e-06
 Reference value :  7.00804e-06
 Reference value :  7.00919e-06
 Reference value :  7.01007e-06
 Reference value :  7.01102e-06
 Reference value :  7.01192e-06
 Reference value :  7.01293e-06
 Reference value :  7.01363e-06
 Reference value :  7.01432e-06
 Reference value :  7.01517e-06
 Reference value :  7.01696e-06
 Reference value :  7.01801e-06
 Reference value :  7.02069e-06
 Reference value :  7.02488e-06
 Reference value :  7.03128e-06
 Reference value :  7.04699e-06
 Reference value :  7.09031e-06
 Reference value :  7.24576e-06
 Reference value :  7.25011e-06
 Reference value :  7.25017e-06
 Reference value :  7.25021e-06
 Reference value :  7.25026e-06
 Reference value :  7.25045e-06
 Reference value :  7.25109e-06
 Reference value :  7.25156e-06
 Reference value :  7.25202e-06
 Reference value :  7.25251e-06
 Reference value :  7.25323e-06
 Reference value :  7.25374e-06
 Reference value :  7.25498e-06
 Reference value :  7.25564e-06
 Reference value :  7.25641e-06
 Reference value :  7.25952e-06
 Reference value :  7.26556e-06
 Reference value :  7.28479e-06
 Reference value :  7.36170e-06
 Reference value :  7.50000e-06
 Reference value :  7.50003e-06
 Reference value :  7.50010e-06
 Reference value :  7.50012e-06
 Reference value :  7.50016e-06
 Reference value :  7.50035e-06
 Reference value :  7.50086e-06
 Reference value :  7.50119e-06
 Reference value :  7.50158e-06
 Reference value :  7.50202e-06
 Reference value :  7.50250e-06
 Reference value :  7.50299e-06
 Reference value :  7.50355e-06
 Reference value :  7.50410e-06
 Reference value :  7.50558e-06
 Reference value :  7.50623e-06
 Reference value :  7.50692e-06
 Reference value :  7.50791e-06
 Reference value :  7.50881e-06
 Reference value :  7.50984e-06
 Reference value :  7.51101e-06
 Reference value :  7.51459e-06
 Reference value :  7.52614e-06
 Reference value :  7.57048e-06
 Reference value :  7.74574e-06
 Reference value :  7.75011e-06
 Reference value :  7.75013e-06
 Reference value :  7.75017e-06
 Reference value :  7.75021e-06
 Reference value :  7.75026e-06
 Reference value :  7.75032e-06
 Reference value :  7.75070e-06
 Reference value :  7.75109e-06
 Reference value :  7.75202e-06
 Reference value :  7.75251e-06
 Reference value :  7.75324e-06
 Reference value :  7.75376e-06
 Reference value :  7.75435e-06
 Reference value :  7.75489e-06
 Reference value :  7.75622e-06
 Reference value :  7.75703e-06
 Reference value :  7.75784e-06
 Reference value :  7.76037e-06
 Reference value :  7.76470e-06
 Reference value :  7.77419e-06
 Reference value :  7.80102e-06
 Reference value :  7.90183e-06
 Reference value :  8.00001e-06
 Reference value :  8.00003e-06
 Reference value :  8.00007e-06
 Reference value :  8.00010e-06
 Reference value :  8.00012e-06
 Reference value :  8.00016e-06
 Reference value :  8.00022e-06
 Reference value :  8.00054e-06
 Reference value :  8.00086e-06
 Reference value :  8.00162e-06
 Reference value :  8.00208e-06
 Reference value :  8.00257e-06
 Reference value :  8.00307e-06
 Reference value :  8.00363e-06
 Reference value :  8.00414e-06
 Reference value :  8.00466e-06
 Reference value :  8.00514e-06
 Reference value :  8.00567e-06
 Reference value :  8.00700e-06
 Reference value :  8.00771e-06
 Reference value :  8.00858e-06
 Reference value :  8.00931e-06
 Reference value :  8.01009e-06
 Reference value :  8.01089e-06
 Reference value :  8.01372e-06
 Reference value :  8.01635e-06
 Reference value :  8.01753e-06
 Reference value :  8.01886e-06
 Reference value :  8.02152e-06
 Reference value :  8.02484e-06
 Reference value :  8.04238e-06
 Reference value :  8.09062e-06
 Reference value :  8.24912e-06
 Reference value :  8.25010e-06
 Reference value :  8.25011e-06
 Reference value :  8.25013e-06
 Reference value :  8.25017e-06
 Reference value :  8.25021e-06
 Reference value :  8.25026e-06
 Reference value :  8.25032e-06
 Reference value :  8.25045e-06
 Reference value :  8.25070e-06
 Reference value :  8.25109e-06
 Reference value :  8.25156e-06
 Reference value :  8.25202e-06
 Reference value :  8.25251e-06
 Reference value :  8.25324e-06
 Reference value :  8.25392e-06
 Reference value :  8.25483e-06
 Reference value :  8.25676e-06
 Reference value :  8.25839e-06
 Reference value :  8.26310e-06
 Reference value :  8.27436e-06
 Reference value :  8.28938e-06
 Reference value :  8.31940e-06
 Reference value :  8.49956e-06
 Reference value :  8.50000e-06
No. of Data Rows : 1250
ngspice-44 done
