
Note: Compatibility modes selected: hs a


Circuit: ** sch_path: /home/audrey/cace/sar-adc-using-sky130-pdk/runs/run_2025-09-09_11-48-46/parameters/power/run_0/power_consumption.sch

option SCALE: Scale is set to 1e-06 for instance and model parameters
option SCALE: Scale is set to 1e-06 for instance and model parameters
option SCALE: Scale is set to 1e-06 for instance and model parameters
option SCALE: Scale is set to 1e-06 for instance and model parameters
Doing analysis at TEMP = 27.000000 and TNOM = 27.000000

Using KLU as Direct Linear Solver
 Reference value :  0.00000e+00
 Reference value :  1.00000e-12
 Reference value :  2.00000e-12
 Reference value :  8.00000e-12
 Reference value :  1.60000e-11
 Reference value :  3.20000e-11
 Reference value :  6.40000e-11
 Reference value :  1.00000e-10
 Reference value :  1.06400e-10
 Reference value :  1.19200e-10
 Reference value :  1.44800e-10
 Reference value :  1.96000e-10
 Reference value :  2.98400e-10
 Reference value :  4.51254e-10
 Reference value :  7.56961e-10
 Reference value :  1.04183e-09
 Reference value :  1.50314e-09
 Reference value :  1.91818e-09
 Reference value :  2.38917e-09
 Reference value :  2.86660e-09
 Reference value :  3.27899e-09
 Reference value :  3.75725e-09
 Reference value :  4.27913e-09
 Reference value :  4.77732e-09
 Reference value :  5.31426e-09
 Reference value :  6.02126e-09
 Reference value :  6.73522e-09
 Reference value :  8.50056e-09
 Reference value :  9.50214e-09
 Reference value :  1.05016e-08
 Reference value :  1.17366e-08
 Reference value :  1.30669e-08
 Reference value :  1.39913e-08
 Reference value :  1.48565e-08
 Reference value :  1.58091e-08
 Reference value :  1.67607e-08
 Reference value :  1.95951e-08
 Reference value :  2.14641e-08
 Reference value :  2.31982e-08
 Reference value :  2.46893e-08
 Reference value :  2.57240e-08
 Reference value :  2.65928e-08
 Reference value :  2.75322e-08
 Reference value :  2.86458e-08
 Reference value :  3.01313e-08
 Reference value :  3.54335e-08
 Reference value :  3.97775e-08
 Reference value :  4.90975e-08
 Reference value :  5.40755e-08
 Reference value :  6.15556e-08
 Reference value :  8.62364e-08
 Reference value :  1.51769e-07
 Reference value :  2.50100e-07
 Reference value :  2.50130e-07
 Reference value :  2.50200e-07
 Reference value :  2.50207e-07
 Reference value :  2.50220e-07
 Reference value :  2.50246e-07
 Reference value :  2.50406e-07
 Reference value :  2.50519e-07
 Reference value :  2.50957e-07
 Reference value :  2.51399e-07
 Reference value :  2.51898e-07
 Reference value :  2.52361e-07
 Reference value :  2.53017e-07
 Reference value :  2.53898e-07
 Reference value :  2.54508e-07
 Reference value :  2.55954e-07
 Reference value :  2.56775e-07
 Reference value :  2.57727e-07
 Reference value :  2.60724e-07
 Reference value :  2.67160e-07
 Reference value :  2.85672e-07
 Reference value :  3.39131e-07
 Reference value :  4.94667e-07
 Reference value :  5.00000e-07
 Reference value :  5.00030e-07
 Reference value :  5.00100e-07
 Reference value :  5.00124e-07
 Reference value :  5.00220e-07
 Reference value :  5.00348e-07
 Reference value :  5.00520e-07
 Reference value :  5.01299e-07
 Reference value :  5.01761e-07
 Reference value :  5.02238e-07
 Reference value :  5.03396e-07
 Reference value :  5.04003e-07
 Reference value :  5.04684e-07
 Reference value :  5.05404e-07
 Reference value :  5.06382e-07
 Reference value :  5.07591e-07
 Reference value :  5.09219e-07
 Reference value :  5.10545e-07
 Reference value :  5.11936e-07
 Reference value :  5.13310e-07
 Reference value :  5.14845e-07
 Reference value :  5.16359e-07
 Reference value :  5.18020e-07
 Reference value :  5.20400e-07
 Reference value :  5.22854e-07
 Reference value :  5.33768e-07
 Reference value :  5.64097e-07
 Reference value :  6.04536e-07
 Reference value :  6.85415e-07
 Reference value :  7.50110e-07
 Reference value :  7.50130e-07
 Reference value :  7.50170e-07
 Reference value :  7.50200e-07
 Reference value :  7.50224e-07
 Reference value :  7.50319e-07
 Reference value :  7.50700e-07
 Reference value :  7.51066e-07
 Reference value :  7.52031e-07
 Reference value :  7.53274e-07
 Reference value :  7.54048e-07
 Reference value :  7.54679e-07
 Reference value :  7.55368e-07
 Reference value :  7.56092e-07
 Reference value :  7.57896e-07
 Reference value :  7.61955e-07
 Reference value :  7.71458e-07
 Reference value :  8.00856e-07
 Reference value :  8.92866e-07
 Reference value :  1.00001e-06
 Reference value :  1.00003e-06
 Reference value :  1.00007e-06
 Reference value :  1.00010e-06
 Reference value :  1.00011e-06
 Reference value :  1.00012e-06
 Reference value :  1.00016e-06
 Reference value :  1.00022e-06
 Reference value :  1.00035e-06
 Reference value :  1.00052e-06
 Reference value :  1.00086e-06
 Reference value :  1.00130e-06
 Reference value :  1.00176e-06
 Reference value :  1.00224e-06
 Reference value :  1.00277e-06
 Reference value :  1.00341e-06
 Reference value :  1.00404e-06
 Reference value :  1.00458e-06
 Reference value :  1.00521e-06
 Reference value :  1.00582e-06
 Reference value :  1.00642e-06
 Reference value :  1.00710e-06
 Reference value :  1.00799e-06
 Reference value :  1.00899e-06
 Reference value :  1.01057e-06
 Reference value :  1.01255e-06
 Reference value :  1.01401e-06
 Reference value :  1.01537e-06
 Reference value :  1.01798e-06
 Reference value :  1.01910e-06
 Reference value :  1.02031e-06
 Reference value :  1.02344e-06
 Reference value :  1.02864e-06
 Reference value :  1.03334e-06
 Reference value :  1.03806e-06
 Reference value :  1.04264e-06
 Reference value :  1.04713e-06
 Reference value :  1.05011e-06
 Reference value :  1.05413e-06
 Reference value :  1.05722e-06
 Reference value :  1.06054e-06
 Reference value :  1.07062e-06
 Reference value :  1.07718e-06
 Reference value :  1.09008e-06
 Reference value :  1.11633e-06
 Reference value :  1.18376e-06
 Reference value :  1.25011e-06
 Reference value :  1.25017e-06
 Reference value :  1.25021e-06
 Reference value :  1.25022e-06
 Reference value :  1.25032e-06
 Reference value :  1.25045e-06
 Reference value :  1.25070e-06
 Reference value :  1.25106e-06
 Reference value :  1.25154e-06
 Reference value :  1.25204e-06
 Reference value :  1.25257e-06
 Reference value :  1.25329e-06
 Reference value :  1.25403e-06
 Reference value :  1.25471e-06
 Reference value :  1.25542e-06
 Reference value :  1.25611e-06
 Reference value :  1.25723e-06
 Reference value :  1.25826e-06
 Reference value :  1.26009e-06
 Reference value :  1.26253e-06
 Reference value :  1.26642e-06
 Reference value :  1.28484e-06
 Reference value :  1.30531e-06
 Reference value :  1.33883e-06
 Reference value :  1.49610e-06
 Reference value :  1.50001e-06
 Reference value :  1.50007e-06
 Reference value :  1.50010e-06
 Reference value :  1.50012e-06
 Reference value :  1.50022e-06
 Reference value :  1.50052e-06
 Reference value :  1.50086e-06
 Reference value :  1.50130e-06
 Reference value :  1.50177e-06
 Reference value :  1.50221e-06
 Reference value :  1.50270e-06
 Reference value :  1.50332e-06
 Reference value :  1.50405e-06
 Reference value :  1.50485e-06
 Reference value :  1.50560e-06
 Reference value :  1.50674e-06
 Reference value :  1.50753e-06
 Reference value :  1.50842e-06
 Reference value :  1.50946e-06
 Reference value :  1.51056e-06
 Reference value :  1.51157e-06
 Reference value :  1.51277e-06
 Reference value :  1.51412e-06
 Reference value :  1.51682e-06
 Reference value :  1.52875e-06
 Reference value :  1.56959e-06
 Reference value :  1.72713e-06
 Reference value :  1.75010e-06
 Reference value :  1.75011e-06
 Reference value :  1.75013e-06
 Reference value :  1.75017e-06
 Reference value :  1.75020e-06
 Reference value :  1.75022e-06
 Reference value :  1.75032e-06
 Reference value :  1.75045e-06
 Reference value :  1.75070e-06
 Reference value :  1.75106e-06
 Reference value :  1.75153e-06
 Reference value :  1.75202e-06
 Reference value :  1.75255e-06
 Reference value :  1.75326e-06
 Reference value :  1.75404e-06
 Reference value :  1.75465e-06
 Reference value :  1.75533e-06
 Reference value :  1.75605e-06
 Reference value :  1.75699e-06
 Reference value :  1.75788e-06
 Reference value :  1.75887e-06
 Reference value :  1.75997e-06
 Reference value :  1.76129e-06
 Reference value :  1.76554e-06
 Reference value :  1.76911e-06
 Reference value :  1.77526e-06
 Reference value :  1.79881e-06
 Reference value :  1.85809e-06
 Reference value :  2.00000e-06
 Reference value :  2.00001e-06
 Reference value :  2.00007e-06
 Reference value :  2.00010e-06
 Reference value :  2.00012e-06
 Reference value :  2.00022e-06
 Reference value :  2.00035e-06
 Reference value :  2.00052e-06
 Reference value :  2.00130e-06
 Reference value :  2.00176e-06
 Reference value :  2.00224e-06
 Reference value :  2.00277e-06
 Reference value :  2.00341e-06
 Reference value :  2.00403e-06
 Reference value :  2.00457e-06
 Reference value :  2.00521e-06
 Reference value :  2.00583e-06
 Reference value :  2.00644e-06
 Reference value :  2.00801e-06
 Reference value :  2.00901e-06
 Reference value :  2.01046e-06
 Reference value :  2.01145e-06
 Reference value :  2.01255e-06
 Reference value :  2.01377e-06
 Reference value :  2.01509e-06
 Reference value :  2.01614e-06
 Reference value :  2.01839e-06
 Reference value :  2.01958e-06
 Reference value :  2.02091e-06
 Reference value :  2.02227e-06
 Reference value :  2.02676e-06
 Reference value :  2.03981e-06
 Reference value :  2.05269e-06
 Reference value :  2.11882e-06
 Reference value :  2.23342e-06
 Reference value :  2.25010e-06
 Reference value :  2.25013e-06
 Reference value :  2.25017e-06
 Reference value :  2.25021e-06
 Reference value :  2.25022e-06
 Reference value :  2.25032e-06
 Reference value :  2.25070e-06
 Reference value :  2.25152e-06
 Reference value :  2.25202e-06
 Reference value :  2.25327e-06
 Reference value :  2.25403e-06
 Reference value :  2.25463e-06
 Reference value :  2.25530e-06
 Reference value :  2.25684e-06
 Reference value :  2.25947e-06
 Reference value :  2.26496e-06
 Reference value :  2.28129e-06
 Reference value :  2.33199e-06
 Reference value :  2.50000e-06
 Reference value :  2.50003e-06
 Reference value :  2.50007e-06
 Reference value :  2.50011e-06
 Reference value :  2.50016e-06
 Reference value :  2.50035e-06
 Reference value :  2.50052e-06
 Reference value :  2.50086e-06
 Reference value :  2.50130e-06
 Reference value :  2.50177e-06
 Reference value :  2.50221e-06
 Reference value :  2.50270e-06
 Reference value :  2.50332e-06
 Reference value :  2.50405e-06
 Reference value :  2.50486e-06
 Reference value :  2.50561e-06
 Reference value :  2.50674e-06
 Reference value :  2.50754e-06
 Reference value :  2.50843e-06
 Reference value :  2.50947e-06
 Reference value :  2.51056e-06
 Reference value :  2.51158e-06
 Reference value :  2.51277e-06
 Reference value :  2.51682e-06
 Reference value :  2.52859e-06
 Reference value :  2.56831e-06
 Reference value :  2.72123e-06
 Reference value :  2.75011e-06
 Reference value :  2.75013e-06
 Reference value :  2.75020e-06
 Reference value :  2.75022e-06
 Reference value :  2.75032e-06
 Reference value :  2.75045e-06
 Reference value :  2.75070e-06
 Reference value :  2.75106e-06
 Reference value :  2.75152e-06
 Reference value :  2.75202e-06
 Reference value :  2.75254e-06
 Reference value :  2.75326e-06
 Reference value :  2.75403e-06
 Reference value :  2.75465e-06
 Reference value :  2.75533e-06
 Reference value :  2.75605e-06
 Reference value :  2.75696e-06
 Reference value :  2.75884e-06
 Reference value :  2.75995e-06
 Reference value :  2.76125e-06
 Reference value :  2.76316e-06
 Reference value :  2.76904e-06
 Reference value :  2.77512e-06
 Reference value :  2.78377e-06
 Reference value :  2.82107e-06
 Reference value :  2.85717e-06
 Reference value :  3.00000e-06
 Reference value :  3.00003e-06
 Reference value :  3.00010e-06
 Reference value :  3.00011e-06
 Reference value :  3.00016e-06
 Reference value :  3.00022e-06
 Reference value :  3.00035e-06
 Reference value :  3.00052e-06
 Reference value :  3.00086e-06
 Reference value :  3.00130e-06
 Reference value :  3.00176e-06
 Reference value :  3.00224e-06
 Reference value :  3.00341e-06
 Reference value :  3.00403e-06
 Reference value :  3.00457e-06
 Reference value :  3.00521e-06
 Reference value :  3.00583e-06
 Reference value :  3.00644e-06
 Reference value :  3.00712e-06
 Reference value :  3.00801e-06
 Reference value :  3.00901e-06
 Reference value :  3.01047e-06
 Reference value :  3.01145e-06
 Reference value :  3.01256e-06
 Reference value :  3.01377e-06
 Reference value :  3.01509e-06
 Reference value :  3.01615e-06
 Reference value :  3.01727e-06
 Reference value :  3.01843e-06
 Reference value :  3.01962e-06
 Reference value :  3.02101e-06
 Reference value :  3.02243e-06
 Reference value :  3.02458e-06
 Reference value :  3.02705e-06
 Reference value :  3.03201e-06
 Reference value :  3.04058e-06
 Reference value :  3.05424e-06
 Reference value :  3.06818e-06
 Reference value :  3.08597e-06
 Reference value :  3.09910e-06
 Reference value :  3.11034e-06
 Reference value :  3.11490e-06
 Reference value :  3.11944e-06
 Reference value :  3.12434e-06
 Reference value :  3.13336e-06
 Reference value :  3.15396e-06
 Reference value :  3.19310e-06
 Reference value :  3.23064e-06
 Reference value :  3.25011e-06
 Reference value :  3.25017e-06
 Reference value :  3.25021e-06
 Reference value :  3.25022e-06
 Reference value :  3.25032e-06
 Reference value :  3.25070e-06
 Reference value :  3.25106e-06
 Reference value :  3.25153e-06
 Reference value :  3.25203e-06
 Reference value :  3.25256e-06
 Reference value :  3.25328e-06
 Reference value :  3.25406e-06
 Reference value :  3.25467e-06
 Reference value :  3.25536e-06
 Reference value :  3.25602e-06
 Reference value :  3.25692e-06
 Reference value :  3.25785e-06
 Reference value :  3.25957e-06
 Reference value :  3.26182e-06
 Reference value :  3.26522e-06
 Reference value :  3.28170e-06
 Reference value :  3.33163e-06
 Reference value :  3.36617e-06
 Reference value :  3.39748e-06
 Reference value :  3.42084e-06
 Reference value :  3.43564e-06
 Reference value :  3.44899e-06
 Reference value :  3.47973e-06
 Reference value :  3.50000e-06
 Reference value :  3.50001e-06
 Reference value :  3.50007e-06
 Reference value :  3.50010e-06
 Reference value :  3.50012e-06
 Reference value :  3.50022e-06
 Reference value :  3.50035e-06
 Reference value :  3.50052e-06
 Reference value :  3.50086e-06
 Reference value :  3.50130e-06
 Reference value :  3.50177e-06
 Reference value :  3.50222e-06
 Reference value :  3.50271e-06
 Reference value :  3.50333e-06
 Reference value :  3.50407e-06
 Reference value :  3.50487e-06
 Reference value :  3.50564e-06
 Reference value :  3.50676e-06
 Reference value :  3.50755e-06
 Reference value :  3.50843e-06
 Reference value :  3.50947e-06
 Reference value :  3.51057e-06
 Reference value :  3.51158e-06
 Reference value :  3.51278e-06
 Reference value :  3.51682e-06
 Reference value :  3.52084e-06
 Reference value :  3.52850e-06
 Reference value :  3.54256e-06
 Reference value :  3.56766e-06
 Reference value :  3.61785e-06
 Reference value :  3.75010e-06
 Reference value :  3.75011e-06
 Reference value :  3.75013e-06
 Reference value :  3.75017e-06
 Reference value :  3.75020e-06
 Reference value :  3.75021e-06
 Reference value :  3.75022e-06
 Reference value :  3.75026e-06
 Reference value :  3.75032e-06
 Reference value :  3.75045e-06
 Reference value :  3.75070e-06
 Reference value :  3.75105e-06
 Reference value :  3.75152e-06
 Reference value :  3.75202e-06
 Reference value :  3.75254e-06
 Reference value :  3.75326e-06
 Reference value :  3.75402e-06
 Reference value :  3.75464e-06
 Reference value :  3.75532e-06
 Reference value :  3.75603e-06
 Reference value :  3.75695e-06
 Reference value :  3.75784e-06
 Reference value :  3.75882e-06
 Reference value :  3.75994e-06
 Reference value :  3.76123e-06
 Reference value :  3.76315e-06
 Reference value :  3.76546e-06
 Reference value :  3.76902e-06
 Reference value :  3.77512e-06
 Reference value :  3.78379e-06
 Reference value :  3.79856e-06
 Reference value :  3.85760e-06
 Reference value :  4.00000e-06
 Reference value :  4.00001e-06
 Reference value :  4.00003e-06
 Reference value :  4.00007e-06
 Reference value :  4.00010e-06
 Reference value :  4.00011e-06
 Reference value :  4.00012e-06
 Reference value :  4.00016e-06
 Reference value :  4.00022e-06
 Reference value :  4.00035e-06
 Reference value :  4.00052e-06
 Reference value :  4.00086e-06
 Reference value :  4.00130e-06
 Reference value :  4.00176e-06
 Reference value :  4.00224e-06
 Reference value :  4.00277e-06
 Reference value :  4.00341e-06
 Reference value :  4.00404e-06
 Reference value :  4.00457e-06
 Reference value :  4.00521e-06
 Reference value :  4.00583e-06
 Reference value :  4.00644e-06
 Reference value :  4.00712e-06
 Reference value :  4.00801e-06
 Reference value :  4.00901e-06
 Reference value :  4.01046e-06
 Reference value :  4.01145e-06
 Reference value :  4.01255e-06
 Reference value :  4.01377e-06
 Reference value :  4.01613e-06
 Reference value :  4.01725e-06
 Reference value :  4.01840e-06
 Reference value :  4.01960e-06
 Reference value :  4.02095e-06
 Reference value :  4.02451e-06
 Reference value :  4.02689e-06
 Reference value :  4.02988e-06
 Reference value :  4.03304e-06
 Reference value :  4.03540e-06
 Reference value :  4.03769e-06
 Reference value :  4.03958e-06
 Reference value :  4.04160e-06
 Reference value :  4.04440e-06
 Reference value :  4.04785e-06
 Reference value :  4.05209e-06
 Reference value :  4.05747e-06
 Reference value :  4.07182e-06
 Reference value :  4.08402e-06
 Reference value :  4.13035e-06
 Reference value :  4.21966e-06
 Reference value :  4.25011e-06
 Reference value :  4.25013e-06
 Reference value :  4.25020e-06
 Reference value :  4.25021e-06
 Reference value :  4.25026e-06
 Reference value :  4.25045e-06
 Reference value :  4.25070e-06
 Reference value :  4.25105e-06
 Reference value :  4.25152e-06
 Reference value :  4.25202e-06
 Reference value :  4.25254e-06
 Reference value :  4.25326e-06
 Reference value :  4.25405e-06
 Reference value :  4.25465e-06
 Reference value :  4.25532e-06
 Reference value :  4.25599e-06
 Reference value :  4.25686e-06
 Reference value :  4.25777e-06
 Reference value :  4.25950e-06
 Reference value :  4.26169e-06
 Reference value :  4.26503e-06
 Reference value :  4.28131e-06
 Reference value :  4.29867e-06
 Reference value :  4.33123e-06
 Reference value :  4.50000e-06
 Reference value :  4.50003e-06
 Reference value :  4.50007e-06
 Reference value :  4.50010e-06
 Reference value :  4.50011e-06
 Reference value :  4.50016e-06
 Reference value :  4.50022e-06
 Reference value :  4.50052e-06
 Reference value :  4.50086e-06
 Reference value :  4.50130e-06
 Reference value :  4.50176e-06
 Reference value :  4.50224e-06
 Reference value :  4.50277e-06
 Reference value :  4.50340e-06
 Reference value :  4.50399e-06
 Reference value :  4.50463e-06
 Reference value :  4.50532e-06
 Reference value :  4.50628e-06
 Reference value :  4.50730e-06
 Reference value :  4.50826e-06
 Reference value :  4.50925e-06
 Reference value :  4.51019e-06
 Reference value :  4.51123e-06
 Reference value :  4.51237e-06
 Reference value :  4.51616e-06
 Reference value :  4.53092e-06
 Reference value :  4.58914e-06
 Reference value :  4.75010e-06
 Reference value :  4.75013e-06
 Reference value :  4.75020e-06
 Reference value :  4.75021e-06
 Reference value :  4.75022e-06
 Reference value :  4.75026e-06
 Reference value :  4.75032e-06
 Reference value :  4.75070e-06
 Reference value :  4.75106e-06
 Reference value :  4.75153e-06
 Reference value :  4.75203e-06
 Reference value :  4.75256e-06
 Reference value :  4.75328e-06
 Reference value :  4.75405e-06
 Reference value :  4.75469e-06
 Reference value :  4.75538e-06
 Reference value :  4.75609e-06
 Reference value :  4.75706e-06
 Reference value :  4.75793e-06
 Reference value :  4.75968e-06
 Reference value :  4.76554e-06
 Reference value :  4.77159e-06
 Reference value :  4.78227e-06
 Reference value :  4.83178e-06
 Reference value :  4.98119e-06
 Reference value :  5.00001e-06
 Reference value :  5.00003e-06
 Reference value :  5.00007e-06
 Reference value :  5.00010e-06
 Reference value :  5.00012e-06
 Reference value :  5.00016e-06
 Reference value :  5.00035e-06
 Reference value :  5.00086e-06
 Reference value :  5.00130e-06
 Reference value :  5.00176e-06
 Reference value :  5.00224e-06
 Reference value :  5.00277e-06
 Reference value :  5.00340e-06
 Reference value :  5.00403e-06
 Reference value :  5.00458e-06
 Reference value :  5.00520e-06
 Reference value :  5.00582e-06
 Reference value :  5.00643e-06
 Reference value :  5.00711e-06
 Reference value :  5.00801e-06
 Reference value :  5.00900e-06
 Reference value :  5.01062e-06
 Reference value :  5.01256e-06
 Reference value :  5.01402e-06
 Reference value :  5.01536e-06
 Reference value :  5.01668e-06
 Reference value :  5.01795e-06
 Reference value :  5.01906e-06
 Reference value :  5.02027e-06
 Reference value :  5.02157e-06
 Reference value :  5.02526e-06
 Reference value :  5.02850e-06
 Reference value :  5.03397e-06
 Reference value :  5.04020e-06
 Reference value :  5.04610e-06
 Reference value :  5.05304e-06
 Reference value :  5.06029e-06
 Reference value :  5.06534e-06
 Reference value :  5.07099e-06
 Reference value :  5.07872e-06
 Reference value :  5.08707e-06
 Reference value :  5.09596e-06
 Reference value :  5.10712e-06
 Reference value :  5.12408e-06
 Reference value :  5.13982e-06
 Reference value :  5.16233e-06
 Reference value :  5.17849e-06
 Reference value :  5.19348e-06
 Reference value :  5.21002e-06
 Reference value :  5.22965e-06
 Reference value :  5.25011e-06
 Reference value :  5.25013e-06
 Reference value :  5.25017e-06
 Reference value :  5.25021e-06
 Reference value :  5.25026e-06
 Reference value :  5.25045e-06
 Reference value :  5.25070e-06
 Reference value :  5.25105e-06
 Reference value :  5.25152e-06
 Reference value :  5.25202e-06
 Reference value :  5.25254e-06
 Reference value :  5.25326e-06
 Reference value :  5.25405e-06
 Reference value :  5.25465e-06
 Reference value :  5.25533e-06
 Reference value :  5.25599e-06
 Reference value :  5.25685e-06
 Reference value :  5.25776e-06
 Reference value :  5.25948e-06
 Reference value :  5.26167e-06
 Reference value :  5.26500e-06
 Reference value :  5.28120e-06
 Reference value :  5.33079e-06
 Reference value :  5.38738e-06
 Reference value :  5.48007e-06
 Reference value :  5.50000e-06
 Reference value :  5.50001e-06
 Reference value :  5.50003e-06
 Reference value :  5.50007e-06
 Reference value :  5.50010e-06
 Reference value :  5.50011e-06
 Reference value :  5.50012e-06
 Reference value :  5.50022e-06
 Reference value :  5.50035e-06
 Reference value :  5.50052e-06
 Reference value :  5.50086e-06
 Reference value :  5.50130e-06
 Reference value :  5.50176e-06
 Reference value :  5.50224e-06
 Reference value :  5.50277e-06
 Reference value :  5.50340e-06
 Reference value :  5.50399e-06
 Reference value :  5.50463e-06
 Reference value :  5.50533e-06
 Reference value :  5.50629e-06
 Reference value :  5.50730e-06
 Reference value :  5.50827e-06
 Reference value :  5.50926e-06
 Reference value :  5.51020e-06
 Reference value :  5.51124e-06
 Reference value :  5.51238e-06
 Reference value :  5.51364e-06
 Reference value :  5.51617e-06
 Reference value :  5.53095e-06
 Reference value :  5.58924e-06
 Reference value :  5.75010e-06
 Reference value :  5.75011e-06
 Reference value :  5.75013e-06
 Reference value :  5.75020e-06
 Reference value :  5.75021e-06
 Reference value :  5.75026e-06
 Reference value :  5.75045e-06
 Reference value :  5.75105e-06
 Reference value :  5.75153e-06
 Reference value :  5.75203e-06
 Reference value :  5.75328e-06
 Reference value :  5.75405e-06
 Reference value :  5.75469e-06
 Reference value :  5.75538e-06
 Reference value :  5.75608e-06
 Reference value :  5.75696e-06
 Reference value :  5.75786e-06
 Reference value :  5.75964e-06
 Reference value :  5.76537e-06
 Reference value :  5.78180e-06
 Reference value :  5.83060e-06
 Reference value :  5.97893e-06
 Reference value :  6.00001e-06
 Reference value :  6.00007e-06
 Reference value :  6.00010e-06
 Reference value :  6.00012e-06
 Reference value :  6.00022e-06
 Reference value :  6.00052e-06
 Reference value :  6.00130e-06
 Reference value :  6.00176e-06
 Reference value :  6.00224e-06
 Reference value :  6.00340e-06
 Reference value :  6.00403e-06
 Reference value :  6.00458e-06
 Reference value :  6.00520e-06
 Reference value :  6.00582e-06
 Reference value :  6.00643e-06
 Reference value :  6.00801e-06
 Reference value :  6.01062e-06
 Reference value :  6.01256e-06
 Reference value :  6.01402e-06
 Reference value :  6.01536e-06
 Reference value :  6.01795e-06
 Reference value :  6.01906e-06
 Reference value :  6.02027e-06
 Reference value :  6.02335e-06
 Reference value :  6.02849e-06
 Reference value :  6.03395e-06
 Reference value :  6.04625e-06
 Reference value :  6.05368e-06
 Reference value :  6.05902e-06
 Reference value :  6.06409e-06
 Reference value :  6.07065e-06
 Reference value :  6.08651e-06
 Reference value :  6.10589e-06
 Reference value :  6.12130e-06
 Reference value :  6.22102e-06
 Reference value :  6.25011e-06
 Reference value :  6.25013e-06
 Reference value :  6.25020e-06
 Reference value :  6.25022e-06
 Reference value :  6.25032e-06
 Reference value :  6.25070e-06
 Reference value :  6.25105e-06
 Reference value :  6.25203e-06
 Reference value :  6.25328e-06
 Reference value :  6.25402e-06
 Reference value :  6.25468e-06
 Reference value :  6.25537e-06
 Reference value :  6.25713e-06
 Reference value :  6.25812e-06
 Reference value :  6.25993e-06
 Reference value :  6.26599e-06
 Reference value :  6.28341e-06
 Reference value :  6.30250e-06
 Reference value :  6.38889e-06
 Reference value :  6.50000e-06
 Reference value :  6.50001e-06
 Reference value :  6.50007e-06
 Reference value :  6.50011e-06
 Reference value :  6.50016e-06
 Reference value :  6.50022e-06
 Reference value :  6.50052e-06
 Reference value :  6.50130e-06
 Reference value :  6.50177e-06
 Reference value :  6.50221e-06
 Reference value :  6.50332e-06
 Reference value :  6.50405e-06
 Reference value :  6.50560e-06
 Reference value :  6.50674e-06
 Reference value :  6.50753e-06
 Reference value :  6.50842e-06
 Reference value :  6.50946e-06
 Reference value :  6.51056e-06
 Reference value :  6.51157e-06
 Reference value :  6.51277e-06
 Reference value :  6.51680e-06
 Reference value :  6.52834e-06
 Reference value :  6.56670e-06
 Reference value :  6.71396e-06
 Reference value :  6.75010e-06
 Reference value :  6.75013e-06
 Reference value :  6.75020e-06
 Reference value :  6.75022e-06
 Reference value :  6.75032e-06
 Reference value :  6.75045e-06
 Reference value :  6.75105e-06
 Reference value :  6.75201e-06
 Reference value :  6.75254e-06
 Reference value :  6.75325e-06
 Reference value :  6.75403e-06
 Reference value :  6.75464e-06
 Reference value :  6.75532e-06
 Reference value :  6.75604e-06
 Reference value :  6.75695e-06
 Reference value :  6.75785e-06
 Reference value :  6.75883e-06
 Reference value :  6.75995e-06
 Reference value :  6.76316e-06
 Reference value :  6.76904e-06
 Reference value :  6.78387e-06
 Reference value :  6.82163e-06
 Reference value :  6.91752e-06
 Reference value :  7.00001e-06
 Reference value :  7.00003e-06
 Reference value :  7.00010e-06
 Reference value :  7.00012e-06
 Reference value :  7.00016e-06
 Reference value :  7.00022e-06
 Reference value :  7.00035e-06
 Reference value :  7.00052e-06
 Reference value :  7.00130e-06
 Reference value :  7.00176e-06
 Reference value :  7.00224e-06
 Reference value :  7.00276e-06
 Reference value :  7.00340e-06
 Reference value :  7.00403e-06
 Reference value :  7.00457e-06
 Reference value :  7.00521e-06
 Reference value :  7.00583e-06
 Reference value :  7.00644e-06
 Reference value :  7.00712e-06
 Reference value :  7.00802e-06
 Reference value :  7.00902e-06
 Reference value :  7.01046e-06
 Reference value :  7.01146e-06
 Reference value :  7.01257e-06
 Reference value :  7.01379e-06
 Reference value :  7.01507e-06
 Reference value :  7.01638e-06
 Reference value :  7.01755e-06
 Reference value :  7.01874e-06
 Reference value :  7.01992e-06
 Reference value :  7.02116e-06
 Reference value :  7.02248e-06
 Reference value :  7.02399e-06
 Reference value :  7.02836e-06
 Reference value :  7.03230e-06
 Reference value :  7.03706e-06
 Reference value :  7.04268e-06
 Reference value :  7.05392e-06
 Reference value :  7.07325e-06
 Reference value :  7.10549e-06
 Reference value :  7.16550e-06
 Reference value :  7.25010e-06
 Reference value :  7.25011e-06
 Reference value :  7.25013e-06
 Reference value :  7.25017e-06
 Reference value :  7.25020e-06
 Reference value :  7.25022e-06
 Reference value :  7.25026e-06
 Reference value :  7.25032e-06
 Reference value :  7.25045e-06
 Reference value :  7.25070e-06
 Reference value :  7.25105e-06
 Reference value :  7.25153e-06
 Reference value :  7.25203e-06
 Reference value :  7.25328e-06
 Reference value :  7.25406e-06
 Reference value :  7.25467e-06
 Reference value :  7.25535e-06
 Reference value :  7.25691e-06
 Reference value :  7.25783e-06
 Reference value :  7.25956e-06
 Reference value :  7.26180e-06
 Reference value :  7.27094e-06
 Reference value :  7.28149e-06
 Reference value :  7.33052e-06
 Reference value :  7.48217e-06
 Reference value :  7.50001e-06
 Reference value :  7.50007e-06
 Reference value :  7.50010e-06
 Reference value :  7.50011e-06
 Reference value :  7.50016e-06
 Reference value :  7.50022e-06
 Reference value :  7.50052e-06
 Reference value :  7.50086e-06
 Reference value :  7.50130e-06
 Reference value :  7.50176e-06
 Reference value :  7.50224e-06
 Reference value :  7.50277e-06
 Reference value :  7.50340e-06
 Reference value :  7.50399e-06
 Reference value :  7.50463e-06
 Reference value :  7.50532e-06
 Reference value :  7.50628e-06
 Reference value :  7.50730e-06
 Reference value :  7.50826e-06
 Reference value :  7.50925e-06
 Reference value :  7.51019e-06
 Reference value :  7.51123e-06
 Reference value :  7.51237e-06
 Reference value :  7.51363e-06
 Reference value :  7.52121e-06
 Reference value :  7.55031e-06
 Reference value :  7.66669e-06
 Reference value :  7.75011e-06
 Reference value :  7.75013e-06
 Reference value :  7.75020e-06
 Reference value :  7.75021e-06
 Reference value :  7.75026e-06
 Reference value :  7.75032e-06
 Reference value :  7.75045e-06
 Reference value :  7.75070e-06
 Reference value :  7.75153e-06
 Reference value :  7.75203e-06
 Reference value :  7.75256e-06
 Reference value :  7.75328e-06
 Reference value :  7.75405e-06
 Reference value :  7.75468e-06
 Reference value :  7.75537e-06
 Reference value :  7.75608e-06
 Reference value :  7.75703e-06
 Reference value :  7.75791e-06
 Reference value :  7.76196e-06
 Reference value :  7.77148e-06
 Reference value :  7.79974e-06
 Reference value :  7.88500e-06
 Reference value :  7.97876e-06
 Reference value :  8.00001e-06
 Reference value :  8.00003e-06
 Reference value :  8.00007e-06
 Reference value :  8.00011e-06
 Reference value :  8.00012e-06
 Reference value :  8.00022e-06
 Reference value :  8.00052e-06
 Reference value :  8.00130e-06
 Reference value :  8.00176e-06
 Reference value :  8.00224e-06
 Reference value :  8.00277e-06
 Reference value :  8.00403e-06
 Reference value :  8.00458e-06
 Reference value :  8.00520e-06
 Reference value :  8.00582e-06
 Reference value :  8.00643e-06
 Reference value :  8.00801e-06
 Reference value :  8.00901e-06
 Reference value :  8.01112e-06
 Reference value :  8.01448e-06
 Reference value :  8.01787e-06
 Reference value :  8.02330e-06
 Reference value :  8.03310e-06
 Reference value :  8.08526e-06
 Reference value :  8.25010e-06
 Reference value :  8.25011e-06
 Reference value :  8.25017e-06
 Reference value :  8.25021e-06
 Reference value :  8.25022e-06
 Reference value :  8.25026e-06
 Reference value :  8.25045e-06
 Reference value :  8.25070e-06
 Reference value :  8.25105e-06
 Reference value :  8.25152e-06
 Reference value :  8.25202e-06
 Reference value :  8.25254e-06
 Reference value :  8.25326e-06
 Reference value :  8.25421e-06
 Reference value :  8.25513e-06
 Reference value :  8.25609e-06
 Reference value :  8.25722e-06
 Reference value :  8.25854e-06
 Reference value :  8.26027e-06
 Reference value :  8.26621e-06
 Reference value :  8.27213e-06
 Reference value :  8.29393e-06
 Reference value :  8.31570e-06
 Reference value :  8.43356e-06
 Reference value :  8.50000e-06
No. of Data Rows : 1278
ngspice-44 done
