
Note: Compatibility modes selected: hs a


Circuit: ** sch_path: /home/madra/cace/sar-adc-using-sky130-pdk/runs/run_2025-09-01_19-06-49/parameters/inl/run_4/sar_output.sch

option SCALE: Scale is set to 1e-06 for instance and model parameters
option SCALE: Scale is set to 1e-06 for instance and model parameters
option SCALE: Scale is set to 1e-06 for instance and model parameters
option SCALE: Scale is set to 1e-06 for instance and model parameters
Doing analysis at TEMP = 27.000000 and TNOM = 27.000000

Using KLU as Direct Linear Solver
Operating point simulation skipped by 'uic',
  now using transient initial conditions.
 Reference value :  1.00000e-12
 Reference value :  1.08400e-12
 Reference value :  1.69057e-12
 Reference value :  3.12524e-12
 Reference value :  6.24186e-12
 Reference value :  1.97376e-11
 Reference value :  5.69534e-11
 Reference value :  1.04962e-10
 Reference value :  1.34735e-10
 Reference value :  2.53825e-10
 Reference value :  6.70049e-10
 Reference value :  1.37610e-09
 Reference value :  2.44868e-09
 Reference value :  4.13014e-09
 Reference value :  6.06838e-09
 Reference value :  7.53928e-09
 Reference value :  9.00083e-09
 Reference value :  1.08981e-08
 Reference value :  1.17005e-08
 Reference value :  1.33041e-08
 Reference value :  1.77395e-08
 Reference value :  2.58643e-08
 Reference value :  3.97231e-08
 Reference value :  5.09567e-08
 Reference value :  9.42323e-08
 Reference value :  2.02520e-07
 Reference value :  2.50130e-07
 Reference value :  2.50200e-07
 Reference value :  2.50223e-07
 Reference value :  2.50315e-07
 Reference value :  2.50569e-07
 Reference value :  2.51035e-07
 Reference value :  2.51911e-07
 Reference value :  2.53039e-07
 Reference value :  2.53667e-07
 Reference value :  2.54222e-07
 Reference value :  2.55422e-07
 Reference value :  2.56995e-07
 Reference value :  2.59855e-07
 Reference value :  2.72389e-07
 Reference value :  3.04339e-07
 Reference value :  5.00000e-07
 Reference value :  5.00030e-07
 Reference value :  5.00100e-07
 Reference value :  5.00156e-07
 Reference value :  5.00345e-07
 Reference value :  5.00863e-07
 Reference value :  5.01815e-07
 Reference value :  5.02775e-07
 Reference value :  5.03342e-07
 Reference value :  5.04594e-07
 Reference value :  5.06433e-07
 Reference value :  5.07731e-07
 Reference value :  5.11177e-07
 Reference value :  5.13779e-07
 Reference value :  5.17458e-07
 Reference value :  5.27687e-07
 Reference value :  5.74668e-07
 Reference value :  7.50100e-07
 Reference value :  7.50170e-07
 Reference value :  7.50224e-07
 Reference value :  7.50444e-07
 Reference value :  7.51257e-07
 Reference value :  7.52139e-07
 Reference value :  7.53493e-07
 Reference value :  7.54593e-07
 Reference value :  7.55913e-07
 Reference value :  7.59789e-07
 Reference value :  7.74800e-07
 Reference value :  8.66002e-07
 Reference value :  1.00001e-06
 Reference value :  1.00010e-06
 Reference value :  1.00016e-06
 Reference value :  1.00052e-06
 Reference value :  1.00131e-06
 Reference value :  1.00182e-06
 Reference value :  1.00278e-06
 Reference value :  1.00333e-06
 Reference value :  1.00449e-06
 Reference value :  1.00586e-06
 Reference value :  1.00855e-06
 Reference value :  1.01010e-06
 Reference value :  1.01153e-06
 Reference value :  1.01280e-06
 Reference value :  1.01379e-06
 Reference value :  1.01587e-06
 Reference value :  1.01802e-06
 Reference value :  1.02096e-06
 Reference value :  1.03079e-06
 Reference value :  1.07622e-06
 Reference value :  1.10125e-06
 Reference value :  1.12975e-06
 Reference value :  1.14741e-06
 Reference value :  1.16013e-06
 Reference value :  1.17942e-06
 Reference value :  1.23037e-06
 Reference value :  1.25013e-06
 Reference value :  1.25021e-06
 Reference value :  1.25032e-06
 Reference value :  1.25084e-06
 Reference value :  1.25171e-06
 Reference value :  1.25273e-06
 Reference value :  1.25395e-06
 Reference value :  1.25513e-06
 Reference value :  1.25660e-06
 Reference value :  1.26270e-06
 Reference value :  1.32088e-06
 Reference value :  1.50001e-06
 Reference value :  1.50010e-06
 Reference value :  1.50016e-06
 Reference value :  1.50034e-06
 Reference value :  1.50086e-06
 Reference value :  1.50175e-06
 Reference value :  1.50268e-06
 Reference value :  1.50322e-06
 Reference value :  1.50442e-06
 Reference value :  1.50522e-06
 Reference value :  1.50671e-06
 Reference value :  1.50832e-06
 Reference value :  1.51031e-06
 Reference value :  1.51798e-06
 Reference value :  1.57572e-06
 Reference value :  1.75011e-06
 Reference value :  1.75020e-06
 Reference value :  1.75022e-06
 Reference value :  1.75044e-06
 Reference value :  1.75083e-06
 Reference value :  1.75170e-06
 Reference value :  1.75270e-06
 Reference value :  1.75401e-06
 Reference value :  1.75527e-06
 Reference value :  1.75598e-06
 Reference value :  1.75765e-06
 Reference value :  1.76167e-06
 Reference value :  1.78023e-06
 Reference value :  1.91443e-06
 Reference value :  2.00003e-06
 Reference value :  2.00011e-06
 Reference value :  2.00022e-06
 Reference value :  2.00086e-06
 Reference value :  2.00182e-06
 Reference value :  2.00334e-06
 Reference value :  2.00457e-06
 Reference value :  2.00582e-06
 Reference value :  2.00834e-06
 Reference value :  2.01047e-06
 Reference value :  2.01155e-06
 Reference value :  2.01351e-06
 Reference value :  2.01529e-06
 Reference value :  2.01840e-06
 Reference value :  2.01959e-06
 Reference value :  2.02752e-06
 Reference value :  2.06553e-06
 Reference value :  2.09907e-06
 Reference value :  2.10976e-06
 Reference value :  2.13109e-06
 Reference value :  2.16210e-06
 Reference value :  2.18925e-06
 Reference value :  2.25010e-06
 Reference value :  2.25013e-06
 Reference value :  2.25020e-06
 Reference value :  2.25022e-06
 Reference value :  2.25032e-06
 Reference value :  2.25060e-06
 Reference value :  2.25126e-06
 Reference value :  2.25214e-06
 Reference value :  2.25350e-06
 Reference value :  2.25401e-06
 Reference value :  2.25525e-06
 Reference value :  2.25676e-06
 Reference value :  2.26312e-06
 Reference value :  2.29411e-06
 Reference value :  2.50000e-06
 Reference value :  2.50007e-06
 Reference value :  2.50016e-06
 Reference value :  2.50052e-06
 Reference value :  2.50131e-06
 Reference value :  2.50278e-06
 Reference value :  2.50391e-06
 Reference value :  2.50549e-06
 Reference value :  2.50638e-06
 Reference value :  2.50715e-06
 Reference value :  2.50801e-06
 Reference value :  2.50887e-06
 Reference value :  2.51094e-06
 Reference value :  2.51461e-06
 Reference value :  2.52427e-06
 Reference value :  2.55308e-06
 Reference value :  2.75010e-06
 Reference value :  2.75013e-06
 Reference value :  2.75020e-06
 Reference value :  2.75022e-06
 Reference value :  2.75032e-06
 Reference value :  2.75045e-06
 Reference value :  2.75060e-06
 Reference value :  2.75127e-06
 Reference value :  2.75171e-06
 Reference value :  2.75273e-06
 Reference value :  2.75351e-06
 Reference value :  2.75402e-06
 Reference value :  2.75527e-06
 Reference value :  2.75689e-06
 Reference value :  2.76274e-06
 Reference value :  2.76781e-06
 Reference value :  2.82329e-06
 Reference value :  3.00001e-06
 Reference value :  3.00007e-06
 Reference value :  3.00011e-06
 Reference value :  3.00012e-06
 Reference value :  3.00022e-06
 Reference value :  3.00052e-06
 Reference value :  3.00131e-06
 Reference value :  3.00231e-06
 Reference value :  3.00332e-06
 Reference value :  3.00449e-06
 Reference value :  3.00586e-06
 Reference value :  3.00853e-06
 Reference value :  3.01007e-06
 Reference value :  3.01276e-06
 Reference value :  3.01376e-06
 Reference value :  3.01584e-06
 Reference value :  3.01789e-06
 Reference value :  3.02242e-06
 Reference value :  3.03439e-06
 Reference value :  3.04504e-06
 Reference value :  3.05288e-06
 Reference value :  3.05756e-06
 Reference value :  3.06808e-06
 Reference value :  3.08991e-06
 Reference value :  3.20587e-06
 Reference value :  3.25013e-06
 Reference value :  3.25021e-06
 Reference value :  3.25032e-06
 Reference value :  3.25084e-06
 Reference value :  3.25171e-06
 Reference value :  3.25346e-06
 Reference value :  3.25453e-06
 Reference value :  3.25584e-06
 Reference value :  3.25814e-06
 Reference value :  3.26664e-06
 Reference value :  3.38402e-06
 Reference value :  3.50003e-06
 Reference value :  3.50010e-06
 Reference value :  3.50016e-06
 Reference value :  3.50034e-06
 Reference value :  3.50086e-06
 Reference value :  3.50175e-06
 Reference value :  3.50268e-06
 Reference value :  3.50322e-06
 Reference value :  3.50442e-06
 Reference value :  3.50522e-06
 Reference value :  3.50671e-06
 Reference value :  3.50832e-06
 Reference value :  3.51030e-06
 Reference value :  3.51794e-06
 Reference value :  3.64019e-06
 Reference value :  3.75013e-06
 Reference value :  3.75021e-06
 Reference value :  3.75032e-06
 Reference value :  3.75060e-06
 Reference value :  3.75126e-06
 Reference value :  3.75214e-06
 Reference value :  3.75350e-06
 Reference value :  3.75401e-06
 Reference value :  3.75527e-06
 Reference value :  3.75598e-06
 Reference value :  3.75680e-06
 Reference value :  3.75871e-06
 Reference value :  3.76167e-06
 Reference value :  3.78024e-06
 Reference value :  3.91437e-06
 Reference value :  4.00003e-06
 Reference value :  4.00011e-06
 Reference value :  4.00022e-06
 Reference value :  4.00052e-06
 Reference value :  4.00086e-06
 Reference value :  4.00131e-06
 Reference value :  4.00231e-06
 Reference value :  4.00334e-06
 Reference value :  4.00457e-06
 Reference value :  4.00582e-06
 Reference value :  4.00733e-06
 Reference value :  4.00943e-06
 Reference value :  4.01047e-06
 Reference value :  4.01155e-06
 Reference value :  4.01354e-06
 Reference value :  4.01534e-06
 Reference value :  4.01732e-06
 Reference value :  4.01970e-06
 Reference value :  4.02776e-06
 Reference value :  4.03232e-06
 Reference value :  4.04353e-06
 Reference value :  4.05014e-06
 Reference value :  4.05291e-06
 Reference value :  4.06006e-06
 Reference value :  4.08037e-06
 Reference value :  4.14307e-06
 Reference value :  4.25010e-06
 Reference value :  4.25013e-06
 Reference value :  4.25020e-06
 Reference value :  4.25025e-06
 Reference value :  4.25054e-06
 Reference value :  4.25098e-06
 Reference value :  4.25194e-06
 Reference value :  4.25312e-06
 Reference value :  4.25440e-06
 Reference value :  4.25563e-06
 Reference value :  4.25646e-06
 Reference value :  4.25907e-06
 Reference value :  4.27142e-06
 Reference value :  4.36301e-06
 Reference value :  4.50001e-06
 Reference value :  4.50007e-06
 Reference value :  4.50011e-06
 Reference value :  4.50022e-06
 Reference value :  4.50093e-06
 Reference value :  4.50196e-06
 Reference value :  4.50245e-06
 Reference value :  4.50350e-06
 Reference value :  4.50490e-06
 Reference value :  4.50641e-06
 Reference value :  4.50828e-06
 Reference value :  4.51126e-06
 Reference value :  4.51905e-06
 Reference value :  4.57402e-06
 Reference value :  4.75011e-06
 Reference value :  4.75020e-06
 Reference value :  4.75025e-06
 Reference value :  4.75039e-06
 Reference value :  4.75074e-06
 Reference value :  4.75147e-06
 Reference value :  4.75244e-06
 Reference value :  4.75382e-06
 Reference value :  4.75503e-06
 Reference value :  4.75643e-06
 Reference value :  4.76116e-06
 Reference value :  4.80615e-06
 Reference value :  5.00000e-06
 Reference value :  5.00003e-06
 Reference value :  5.00011e-06
 Reference value :  5.00016e-06
 Reference value :  5.00059e-06
 Reference value :  5.00196e-06
 Reference value :  5.00297e-06
 Reference value :  5.00349e-06
 Reference value :  5.00466e-06
 Reference value :  5.00588e-06
 Reference value :  5.00872e-06
 Reference value :  5.01186e-06
 Reference value :  5.01441e-06
 Reference value :  5.01633e-06
 Reference value :  5.01879e-06
 Reference value :  5.02212e-06
 Reference value :  5.02907e-06
 Reference value :  5.03878e-06
 Reference value :  5.04777e-06
 Reference value :  5.05742e-06
 Reference value :  5.07517e-06
 Reference value :  5.12275e-06
 Reference value :  5.25011e-06
 Reference value :  5.25020e-06
 Reference value :  5.25025e-06
 Reference value :  5.25039e-06
 Reference value :  5.25071e-06
 Reference value :  5.25142e-06
 Reference value :  5.25240e-06
 Reference value :  5.25376e-06
 Reference value :  5.25432e-06
 Reference value :  5.25553e-06
 Reference value :  5.25636e-06
 Reference value :  5.26107e-06
 Reference value :  5.27049e-06
 Reference value :  5.34299e-06
 Reference value :  5.50000e-06
 Reference value :  5.50003e-06
 Reference value :  5.50010e-06
 Reference value :  5.50012e-06
 Reference value :  5.50035e-06
 Reference value :  5.50093e-06
 Reference value :  5.50243e-06
 Reference value :  5.50347e-06
 Reference value :  5.50471e-06
 Reference value :  5.50648e-06
 Reference value :  5.50836e-06
 Reference value :  5.51026e-06
 Reference value :  5.51261e-06
 Reference value :  5.52554e-06
 Reference value :  5.60211e-06
 Reference value :  5.75011e-06
 Reference value :  5.75020e-06
 Reference value :  5.75026e-06
 Reference value :  5.75039e-06
 Reference value :  5.75074e-06
 Reference value :  5.75147e-06
 Reference value :  5.75194e-06
 Reference value :  5.75311e-06
 Reference value :  5.75440e-06
 Reference value :  5.75567e-06
 Reference value :  5.75644e-06
 Reference value :  5.75808e-06
 Reference value :  5.76026e-06
 Reference value :  5.76406e-06
 Reference value :  5.78095e-06
 Reference value :  5.85156e-06
 Reference value :  6.00000e-06
 Reference value :  6.00003e-06
 Reference value :  6.00007e-06
 Reference value :  6.00011e-06
 Reference value :  6.00012e-06
 Reference value :  6.00035e-06
 Reference value :  6.00093e-06
 Reference value :  6.00196e-06
 Reference value :  6.00245e-06
 Reference value :  6.00350e-06
 Reference value :  6.00459e-06
 Reference value :  6.00583e-06
 Reference value :  6.00731e-06
 Reference value :  6.00970e-06
 Reference value :  6.01066e-06
 Reference value :  6.01294e-06
 Reference value :  6.01457e-06
 Reference value :  6.01554e-06
 Reference value :  6.01746e-06
 Reference value :  6.01995e-06
 Reference value :  6.02945e-06
 Reference value :  6.03914e-06
 Reference value :  6.05390e-06
 Reference value :  6.09740e-06
 Reference value :  6.18679e-06
 Reference value :  6.24234e-06
 Reference value :  6.25013e-06
 Reference value :  6.25021e-06
 Reference value :  6.25032e-06
 Reference value :  6.25054e-06
 Reference value :  6.25097e-06
 Reference value :  6.25193e-06
 Reference value :  6.25309e-06
 Reference value :  6.25433e-06
 Reference value :  6.25554e-06
 Reference value :  6.25717e-06
 Reference value :  6.26423e-06
 Reference value :  6.28142e-06
 Reference value :  6.34262e-06
 Reference value :  6.50001e-06
 Reference value :  6.50007e-06
 Reference value :  6.50011e-06
 Reference value :  6.50022e-06
 Reference value :  6.50059e-06
 Reference value :  6.50145e-06
 Reference value :  6.50243e-06
 Reference value :  6.50347e-06
 Reference value :  6.50471e-06
 Reference value :  6.50648e-06
 Reference value :  6.50836e-06
 Reference value :  6.50928e-06
 Reference value :  6.51137e-06
 Reference value :  6.51873e-06
 Reference value :  6.55900e-06
 Reference value :  6.75010e-06
 Reference value :  6.75013e-06
 Reference value :  6.75020e-06
 Reference value :  6.75022e-06
 Reference value :  6.75032e-06
 Reference value :  6.75074e-06
 Reference value :  6.75147e-06
 Reference value :  6.75245e-06
 Reference value :  6.75382e-06
 Reference value :  6.75440e-06
 Reference value :  6.75567e-06
 Reference value :  6.75643e-06
 Reference value :  6.75808e-06
 Reference value :  6.76025e-06
 Reference value :  6.76721e-06
 Reference value :  6.79476e-06
 Reference value :  7.00000e-06
 Reference value :  7.00003e-06
 Reference value :  7.00010e-06
 Reference value :  7.00012e-06
 Reference value :  7.00022e-06
 Reference value :  7.00059e-06
 Reference value :  7.00145e-06
 Reference value :  7.00245e-06
 Reference value :  7.00350e-06
 Reference value :  7.00459e-06
 Reference value :  7.00583e-06
 Reference value :  7.00731e-06
 Reference value :  7.01066e-06
 Reference value :  7.01294e-06
 Reference value :  7.01456e-06
 Reference value :  7.01655e-06
 Reference value :  7.01995e-06
 Reference value :  7.02829e-06
 Reference value :  7.05095e-06
 Reference value :  7.07054e-06
 Reference value :  7.10960e-06
 Reference value :  7.18440e-06
 Reference value :  7.25013e-06
 Reference value :  7.25021e-06
 Reference value :  7.25032e-06
 Reference value :  7.25071e-06
 Reference value :  7.25192e-06
 Reference value :  7.25380e-06
 Reference value :  7.25496e-06
 Reference value :  7.25633e-06
 Reference value :  7.26424e-06
 Reference value :  7.34079e-06
 Reference value :  7.50001e-06
 Reference value :  7.50010e-06
 Reference value :  7.50022e-06
 Reference value :  7.50093e-06
 Reference value :  7.50245e-06
 Reference value :  7.50350e-06
 Reference value :  7.50490e-06
 Reference value :  7.50641e-06
 Reference value :  7.50828e-06
 Reference value :  7.51126e-06
 Reference value :  7.51899e-06
 Reference value :  7.57270e-06
 Reference value :  7.75011e-06
 Reference value :  7.75020e-06
 Reference value :  7.75025e-06
 Reference value :  7.75054e-06
 Reference value :  7.75147e-06
 Reference value :  7.75244e-06
 Reference value :  7.75440e-06
 Reference value :  7.75566e-06
 Reference value :  7.75725e-06
 Reference value :  7.76455e-06
 Reference value :  7.85025e-06
 Reference value :  8.00001e-06
 Reference value :  8.00010e-06
 Reference value :  8.00022e-06
 Reference value :  8.00093e-06
 Reference value :  8.00245e-06
 Reference value :  8.00349e-06
 Reference value :  8.00466e-06
 Reference value :  8.00659e-06
 Reference value :  8.00814e-06
 Reference value :  8.00996e-06
 Reference value :  8.01313e-06
 Reference value :  8.02572e-06
 Reference value :  8.14281e-06
 Reference value :  8.25013e-06
 Reference value :  8.25021e-06
 Reference value :  8.25044e-06
 Reference value :  8.25118e-06
 Reference value :  8.25256e-06
 Reference value :  8.25404e-06
 Reference value :  8.25596e-06
 Reference value :  8.25853e-06
 Reference value :  8.26795e-06
 Reference value :  8.41167e-06
 Reference value :  8.50003e-06
 Reference value :  8.50011e-06
 Reference value :  8.50022e-06
 Reference value :  8.50094e-06
 Reference value :  8.50143e-06
 Reference value :  8.50244e-06
 Reference value :  8.50357e-06
 Reference value :  8.50489e-06
 Reference value :  8.50631e-06
 Reference value :  8.50849e-06
 Reference value :  8.51987e-06
 Reference value :  8.52614e-06
 Reference value :  8.53072e-06
 Reference value :  8.53816e-06
 Reference value :  8.54377e-06
 Reference value :  8.55714e-06
 Reference value :  8.59546e-06
 Reference value :  8.70323e-06
 Reference value :  8.75013e-06
 Reference value :  8.75021e-06
 Reference value :  8.75032e-06
 Reference value :  8.75083e-06
 Reference value :  8.75170e-06
 Reference value :  8.75271e-06
 Reference value :  8.75348e-06
 Reference value :  8.75398e-06
 Reference value :  8.75521e-06
 Reference value :  8.75670e-06
 Reference value :  8.76297e-06
 Reference value :  8.79261e-06
 Reference value :  9.00000e-06
 Reference value :  9.00007e-06
 Reference value :  9.00016e-06
 Reference value :  9.00052e-06
 Reference value :  9.00182e-06
 Reference value :  9.00332e-06
 Reference value :  9.00454e-06
 Reference value :  9.00636e-06
 Reference value :  9.00757e-06
 Reference value :  9.00872e-06
 Reference value :  9.01109e-06
 Reference value :  9.01366e-06
 Reference value :  9.01894e-06
 Reference value :  9.04694e-06
 Reference value :  9.25010e-06
 Reference value :  9.25017e-06
 Reference value :  9.25026e-06
 Reference value :  9.25060e-06
 Reference value :  9.25126e-06
 Reference value :  9.25214e-06
 Reference value :  9.25349e-06
 Reference value :  9.25401e-06
 Reference value :  9.25526e-06
 Reference value :  9.25689e-06
 Reference value :  9.26019e-06
 Reference value :  9.27729e-06
 Reference value :  9.32343e-06
 Reference value :  9.50001e-06
 Reference value :  9.50007e-06
 Reference value :  9.50011e-06
 Reference value :  9.50022e-06
 Reference value :  9.50086e-06
 Reference value :  9.50182e-06
 Reference value :  9.50278e-06
 Reference value :  9.50332e-06
 Reference value :  9.50448e-06
 Reference value :  9.50585e-06
 Reference value :  9.50748e-06
 Reference value :  9.51005e-06
 Reference value :  9.51274e-06
 Reference value :  9.51374e-06
 Reference value :  9.51582e-06
 Reference value :  9.51683e-06
 Reference value :  9.51906e-06
 Reference value :  9.52524e-06
 Reference value :  9.55342e-06
 Reference value :  9.60367e-06
 Reference value :  9.62803e-06
 Reference value :  9.64432e-06
 Reference value :  9.65648e-06
 Reference value :  9.67537e-06
 Reference value :  9.71857e-06
 Reference value :  9.75013e-06
 Reference value :  9.75021e-06
 Reference value :  9.75026e-06
 Reference value :  9.75044e-06
 Reference value :  9.75083e-06
 Reference value :  9.75170e-06
 Reference value :  9.75271e-06
 Reference value :  9.75394e-06
 Reference value :  9.75512e-06
 Reference value :  9.75660e-06
 Reference value :  9.76657e-06
 Reference value :  9.88284e-06
 Reference value :  1.00000e-05
 Reference value :  1.00001e-05
 Reference value :  1.00003e-05
 Reference value :  1.00013e-05
 Reference value :  1.00022e-05
 Reference value :  1.00032e-05
 Reference value :  1.00044e-05
 Reference value :  1.00052e-05
 Reference value :  1.00067e-05
 Reference value :  1.00083e-05
 Reference value :  1.00115e-05
 Reference value :  1.00420e-05
 Reference value :  1.02501e-05
 Reference value :  1.02502e-05
 Reference value :  1.02503e-05
 Reference value :  1.02508e-05
 Reference value :  1.02517e-05
 Reference value :  1.02527e-05
 Reference value :  1.02535e-05
 Reference value :  1.02540e-05
 Reference value :  1.02553e-05
 Reference value :  1.02560e-05
 Reference value :  1.02577e-05
 Reference value :  1.02617e-05
 Reference value :  1.02723e-05
 Reference value :  1.03167e-05
 Reference value :  1.05000e-05
 Reference value :  1.05000e-05
 Reference value :  1.05001e-05
 Reference value :  1.05002e-05
 Reference value :  1.05003e-05
 Reference value :  1.05013e-05
 Reference value :  1.05028e-05
 Reference value :  1.05033e-05
 Reference value :  1.05046e-05
 Reference value :  1.05058e-05
 Reference value :  1.05073e-05
 Reference value :  1.05094e-05
 Reference value :  1.05115e-05
 Reference value :  1.05135e-05
 Reference value :  1.05153e-05
 Reference value :  1.05183e-05
 Reference value :  1.05208e-05
 Reference value :  1.05358e-05
 Reference value :  1.05638e-05
 Reference value :  1.05948e-05
 Reference value :  1.06071e-05
 Reference value :  1.06129e-05
 Reference value :  1.06238e-05
 Reference value :  1.06574e-05
 Reference value :  1.07151e-05
 Reference value :  1.07501e-05
 Reference value :  1.07502e-05
 Reference value :  1.07502e-05
 Reference value :  1.07503e-05
 Reference value :  1.07504e-05
 Reference value :  1.07513e-05
 Reference value :  1.07517e-05
 Reference value :  1.07527e-05
 Reference value :  1.07535e-05
 Reference value :  1.07540e-05
 Reference value :  1.07552e-05
 Reference value :  1.07568e-05
 Reference value :  1.07675e-05
 Reference value :  1.08267e-05
 Reference value :  1.10000e-05
 Reference value :  1.10001e-05
 Reference value :  1.10002e-05
 Reference value :  1.10005e-05
 Reference value :  1.10018e-05
 Reference value :  1.10033e-05
 Reference value :  1.10045e-05
 Reference value :  1.10064e-05
 Reference value :  1.10071e-05
 Reference value :  1.10089e-05
 Reference value :  1.10109e-05
 Reference value :  1.10179e-05
 Reference value :  1.10519e-05
 Reference value :  1.12501e-05
 Reference value :  1.12501e-05
 Reference value :  1.12502e-05
 Reference value :  1.12503e-05
 Reference value :  1.12508e-05
 Reference value :  1.12522e-05
 Reference value :  1.12540e-05
 Reference value :  1.12560e-05
 Reference value :  1.12602e-05
 Reference value :  1.12769e-05
 Reference value :  1.15000e-05
 Reference value :  1.15001e-05
 Reference value :  1.15002e-05
 Reference value :  1.15005e-05
 Reference value :  1.15013e-05
 Reference value :  1.15028e-05
 Reference value :  1.15039e-05
 Reference value :  1.15052e-05
 Reference value :  1.15065e-05
 Reference value :  1.15101e-05
 Reference value :  1.15128e-05
 Reference value :  1.15147e-05
 Reference value :  1.15168e-05
 Reference value :  1.15207e-05
 Reference value :  1.15295e-05
 Reference value :  1.15450e-05
 Reference value :  1.15529e-05
 Reference value :  1.15625e-05
 Reference value :  1.15738e-05
 Reference value :  1.16034e-05
 Reference value :  1.17501e-05
 Reference value :  1.17502e-05
 Reference value :  1.17502e-05
 Reference value :  1.17504e-05
 Reference value :  1.17508e-05
 Reference value :  1.17517e-05
 Reference value :  1.17535e-05
 Reference value :  1.17545e-05
 Reference value :  1.17558e-05
 Reference value :  1.17627e-05
 Reference value :  1.17901e-05
 Reference value :  1.20000e-05
 Reference value :  1.20001e-05
 Reference value :  1.20001e-05
 Reference value :  1.20003e-05
 Reference value :  1.20013e-05
 Reference value :  1.20022e-05
 Reference value :  1.20032e-05
 Reference value :  1.20044e-05
 Reference value :  1.20052e-05
 Reference value :  1.20067e-05
 Reference value :  1.20083e-05
 Reference value :  1.20103e-05
 Reference value :  1.20259e-05
 Reference value :  1.22501e-05
 Reference value :  1.22502e-05
 Reference value :  1.22503e-05
 Reference value :  1.22506e-05
 Reference value :  1.22513e-05
 Reference value :  1.22521e-05
 Reference value :  1.22535e-05
 Reference value :  1.22546e-05
 Reference value :  1.22560e-05
 Reference value :  1.22577e-05
 Reference value :  1.22617e-05
 Reference value :  1.22802e-05
 Reference value :  1.24144e-05
 Reference value :  1.25001e-05
 Reference value :  1.25002e-05
 Reference value :  1.25005e-05
 Reference value :  1.25018e-05
 Reference value :  1.25028e-05
 Reference value :  1.25039e-05
 Reference value :  1.25052e-05
 Reference value :  1.25065e-05
 Reference value :  1.25094e-05
 Reference value :  1.25116e-05
 Reference value :  1.25135e-05
 Reference value :  1.25154e-05
 Reference value :  1.25174e-05
 Reference value :  1.25214e-05
 Reference value :  1.25380e-05
 Reference value :  1.25469e-05
 Reference value :  1.25527e-05
 Reference value :  1.25715e-05
 Reference value :  1.25947e-05
 Reference value :  1.26447e-05
 Reference value :  1.27501e-05
 Reference value :  1.27501e-05
 Reference value :  1.27502e-05
 Reference value :  1.27503e-05
 Reference value :  1.27505e-05
 Reference value :  1.27515e-05
 Reference value :  1.27524e-05
 Reference value :  1.27538e-05
 Reference value :  1.27544e-05
 Reference value :  1.27556e-05
 Reference value :  1.27574e-05
 Reference value :  1.27649e-05
 Reference value :  1.28107e-05
 Reference value :  1.30000e-05
 Reference value :  1.30001e-05
 Reference value :  1.30002e-05
 Reference value :  1.30009e-05
 Reference value :  1.30024e-05
 Reference value :  1.30035e-05
 Reference value :  1.30049e-05
 Reference value :  1.30064e-05
 Reference value :  1.30083e-05
 Reference value :  1.30112e-05
 Reference value :  1.30190e-05
 Reference value :  1.30727e-05
 Reference value :  1.32501e-05
 Reference value :  1.32502e-05
 Reference value :  1.32503e-05
 Reference value :  1.32505e-05
 Reference value :  1.32515e-05
 Reference value :  1.32524e-05
 Reference value :  1.32538e-05
 Reference value :  1.32550e-05
 Reference value :  1.32564e-05
 Reference value :  1.32612e-05
 Reference value :  1.33053e-05
 Reference value :  1.35000e-05
 Reference value :  1.35001e-05
 Reference value :  1.35002e-05
 Reference value :  1.35006e-05
 Reference value :  1.35015e-05
 Reference value :  1.35024e-05
 Reference value :  1.35035e-05
 Reference value :  1.35047e-05
 Reference value :  1.35059e-05
 Reference value :  1.35087e-05
 Reference value :  1.35119e-05
 Reference value :  1.35144e-05
 Reference value :  1.35163e-05
 Reference value :  1.35188e-05
 Reference value :  1.35248e-05
 Reference value :  1.35337e-05
 Reference value :  1.35387e-05
 Reference value :  1.35525e-05
 Reference value :  1.35629e-05
 Reference value :  1.35975e-05
 Reference value :  1.37501e-05
 Reference value :  1.37502e-05
 Reference value :  1.37503e-05
 Reference value :  1.37505e-05
 Reference value :  1.37514e-05
 Reference value :  1.37531e-05
 Reference value :  1.37543e-05
 Reference value :  1.37564e-05
 Reference value :  1.37611e-05
 Reference value :  1.37822e-05
 Reference value :  1.40000e-05
 Reference value :  1.40001e-05
 Reference value :  1.40001e-05
 Reference value :  1.40003e-05
 Reference value :  1.40015e-05
 Reference value :  1.40024e-05
 Reference value :  1.40035e-05
 Reference value :  1.40056e-05
 Reference value :  1.40074e-05
 Reference value :  1.40093e-05
 Reference value :  1.40114e-05
 Reference value :  1.40151e-05
 Reference value :  1.40255e-05
 Reference value :  1.41010e-05
 Reference value :  1.42501e-05
 Reference value :  1.42501e-05
 Reference value :  1.42502e-05
 Reference value :  1.42503e-05
 Reference value :  1.42504e-05
 Reference value :  1.42510e-05
 Reference value :  1.42519e-05
 Reference value :  1.42531e-05
 Reference value :  1.42544e-05
 Reference value :  1.42564e-05
 Reference value :  1.42581e-05
 Reference value :  1.42603e-05
 Reference value :  1.42672e-05
 Reference value :  1.42948e-05
 Reference value :  1.45000e-05
 Reference value :  1.45001e-05
 Reference value :  1.45002e-05
 Reference value :  1.45009e-05
 Reference value :  1.45024e-05
 Reference value :  1.45035e-05
 Reference value :  1.45046e-05
 Reference value :  1.45065e-05
 Reference value :  1.45097e-05
 Reference value :  1.45107e-05
 Reference value :  1.45129e-05
 Reference value :  1.45138e-05
 Reference value :  1.45155e-05
 Reference value :  1.45175e-05
 Reference value :  1.45218e-05
 Reference value :  1.45340e-05
 Reference value :  1.45535e-05
 Reference value :  1.46210e-05
 Reference value :  1.46851e-05
 Reference value :  1.47501e-05
 Reference value :  1.47502e-05
 Reference value :  1.47503e-05
 Reference value :  1.47507e-05
 Reference value :  1.47519e-05
 Reference value :  1.47538e-05
 Reference value :  1.47550e-05
 Reference value :  1.47563e-05
 Reference value :  1.47610e-05
 Reference value :  1.47814e-05
 Reference value :  1.49234e-05
 Reference value :  1.50000e-05
 Reference value :  1.50001e-05
 Reference value :  1.50002e-05
 Reference value :  1.50006e-05
 Reference value :  1.50020e-05
 Reference value :  1.50029e-05
 Reference value :  1.50035e-05
 Reference value :  1.50047e-05
 Reference value :  1.50065e-05
 Reference value :  1.50084e-05
 Reference value :  1.50103e-05
 Reference value :  1.50126e-05
 Reference value :  1.50255e-05
 Reference value :  1.51010e-05
 Reference value :  1.52501e-05
 Reference value :  1.52502e-05
 Reference value :  1.52503e-05
 Reference value :  1.52504e-05
 Reference value :  1.52510e-05
 Reference value :  1.52519e-05
 Reference value :  1.52531e-05
 Reference value :  1.52544e-05
 Reference value :  1.52557e-05
 Reference value :  1.52573e-05
 Reference value :  1.52590e-05
 Reference value :  1.52641e-05
 Reference value :  1.52809e-05
 Reference value :  1.54211e-05
 Reference value :  1.55013e-05
 Reference value :  1.55052e-05
 Reference value :  1.55077e-05
 Reference value :  1.55112e-05
 Reference value :  1.55123e-05
 Reference value :  1.55141e-05
 Reference value :  1.55161e-05
 Reference value :  1.55181e-05
 Reference value :  1.55223e-05
 Reference value :  1.55334e-05
 Reference value :  1.55513e-05
 Reference value :  1.55700e-05
 Reference value :  1.56068e-05
 Reference value :  1.56396e-05
 Reference value :  1.57501e-05
 Reference value :  1.57502e-05
 Reference value :  1.57502e-05
 Reference value :  1.57504e-05
 Reference value :  1.57509e-05
 Reference value :  1.57515e-05
 Reference value :  1.57529e-05
 Reference value :  1.57543e-05
 Reference value :  1.57555e-05
 Reference value :  1.57570e-05
 Reference value :  1.57639e-05
 Reference value :  1.58259e-05
 Reference value :  1.60000e-05
 Reference value :  1.60001e-05
 Reference value :  1.60001e-05
 Reference value :  1.60003e-05
 Reference value :  1.60009e-05
 Reference value :  1.60024e-05
 Reference value :  1.60035e-05
 Reference value :  1.60049e-05
 Reference value :  1.60064e-05
 Reference value :  1.60083e-05
 Reference value :  1.60102e-05
 Reference value :  1.60124e-05
 Reference value :  1.60427e-05
 Reference value :  1.62501e-05
 Reference value :  1.62502e-05
 Reference value :  1.62503e-05
 Reference value :  1.62505e-05
 Reference value :  1.62515e-05
 Reference value :  1.62524e-05
 Reference value :  1.62544e-05
 Reference value :  1.62564e-05
 Reference value :  1.62612e-05
 Reference value :  1.62830e-05
 Reference value :  1.65000e-05
 Reference value :  1.65001e-05
 Reference value :  1.65001e-05
 Reference value :  1.65002e-05
 Reference value :  1.65009e-05
 Reference value :  1.65020e-05
 Reference value :  1.65030e-05
 Reference value :  1.65035e-05
 Reference value :  1.65041e-05
 Reference value :  1.65047e-05
 Reference value :  1.65059e-05
 Reference value :  1.65074e-05
 Reference value :  1.65090e-05
 Reference value :  1.65100e-05
 Reference value :  1.65174e-05
 Reference value :  1.66428e-05
 Reference value :  1.67501e-05
 Reference value :  1.67502e-05
 Reference value :  1.67503e-05
 Reference value :  1.67504e-05
 Reference value :  1.67512e-05
 Reference value :  1.67520e-05
 Reference value :  1.67533e-05
 Reference value :  1.67550e-05
 Reference value :  1.67569e-05
 Reference value :  1.67602e-05
 Reference value :  1.67775e-05
 Reference value :  1.69117e-05
 Reference value :  1.70015e-05
 Reference value :  1.70060e-05
 Reference value :  1.70111e-05
 Reference value :  1.70165e-05
 Reference value :  1.70253e-05
 Reference value :  1.70287e-05
 Reference value :  1.70314e-05
 Reference value :  1.70338e-05
 Reference value :  1.70371e-05
 Reference value :  1.70401e-05
 Reference value :  1.70442e-05
 Reference value :  1.70555e-05
 Reference value :  1.70863e-05
 Reference value :  1.71628e-05
 Reference value :  1.72501e-05
 Reference value :  1.72502e-05
 Reference value :  1.72503e-05
 Reference value :  1.72504e-05
 Reference value :  1.72508e-05
 Reference value :  1.72517e-05
 Reference value :  1.72527e-05
 Reference value :  1.72539e-05
 Reference value :  1.72551e-05
 Reference value :  1.72566e-05
 Reference value :  1.72628e-05
 Reference value :  1.72904e-05
 Reference value :  1.75000e-05
 Reference value :  1.75001e-05
 Reference value :  1.75001e-05
 Reference value :  1.75003e-05
 Reference value :  1.75009e-05
 Reference value :  1.75023e-05
 Reference value :  1.75033e-05
 Reference value :  1.75055e-05
 Reference value :  1.75076e-05
 Reference value :  1.75099e-05
 Reference value :  1.75111e-05
 Reference value :  1.75137e-05
 Reference value :  1.75172e-05
 Reference value :  1.75272e-05
 Reference value :  1.75696e-05
 Reference value :  1.77501e-05
 Reference value :  1.77501e-05
 Reference value :  1.77502e-05
 Reference value :  1.77503e-05
 Reference value :  1.77504e-05
 Reference value :  1.77508e-05
 Reference value :  1.77517e-05
 Reference value :  1.77527e-05
 Reference value :  1.77535e-05
 Reference value :  1.77540e-05
 Reference value :  1.77553e-05
 Reference value :  1.77569e-05
 Reference value :  1.77627e-05
 Reference value :  1.77927e-05
 Reference value :  1.80000e-05
 Reference value :  1.80021e-05
 Reference value :  1.80084e-05
 Reference value :  1.80121e-05
 Reference value :  1.80134e-05
 Reference value :  1.80159e-05
 Reference value :  1.80187e-05
 Reference value :  1.80253e-05
 Reference value :  1.80532e-05
 Reference value :  1.81061e-05
 Reference value :  1.81285e-05
 Reference value :  1.81437e-05
 Reference value :  1.81544e-05
 Reference value :  1.81706e-05
 Reference value :  1.82196e-05
 Reference value :  1.82501e-05
 Reference value :  1.82502e-05
 Reference value :  1.82503e-05
 Reference value :  1.82506e-05
 Reference value :  1.82513e-05
 Reference value :  1.82521e-05
 Reference value :  1.82526e-05
 Reference value :  1.82536e-05
 Reference value :  1.82546e-05
 Reference value :  1.82559e-05
 Reference value :  1.82582e-05
 Reference value :  1.82628e-05
 Reference value :  1.82752e-05
 Reference value :  1.83904e-05
 Reference value :  1.85000e-05
 Reference value :  1.85001e-05
 Reference value :  1.85002e-05
 Reference value :  1.85003e-05
 Reference value :  1.85009e-05
 Reference value :  1.85017e-05
 Reference value :  1.85027e-05
 Reference value :  1.85032e-05
 Reference value :  1.85044e-05
 Reference value :  1.85060e-05
 Reference value :  1.85067e-05
 Reference value :  1.85083e-05
 Reference value :  1.85103e-05
 Reference value :  1.85176e-05
 Reference value :  1.85699e-05
 Reference value :  1.87501e-05
 Reference value :  1.87502e-05
 Reference value :  1.87502e-05
 Reference value :  1.87504e-05
 Reference value :  1.87513e-05
 Reference value :  1.87522e-05
 Reference value :  1.87535e-05
 Reference value :  1.87540e-05
 Reference value :  1.87553e-05
 Reference value :  1.87568e-05
 Reference value :  1.87598e-05
 Reference value :  1.87667e-05
 Reference value :  1.87945e-05
 Reference value :  1.89137e-05
 Reference value :  1.90000e-05
 Reference value :  1.90001e-05
 Reference value :  1.90002e-05
 Reference value :  1.90005e-05
 Reference value :  1.90018e-05
 Reference value :  1.90028e-05
 Reference value :  1.90033e-05
 Reference value :  1.90046e-05
 Reference value :  1.90058e-05
 Reference value :  1.90083e-05
 Reference value :  1.90105e-05
 Reference value :  1.90115e-05
 Reference value :  1.90135e-05
 Reference value :  1.90153e-05
 Reference value :  1.90173e-05
 Reference value :  1.90196e-05
 Reference value :  1.90274e-05
 Reference value :  1.90640e-05
 Reference value :  1.90979e-05
 Reference value :  1.91088e-05
 Reference value :  1.91274e-05
 Reference value :  1.91556e-05
 Reference value :  1.92100e-05
 Reference value :  1.92501e-05
 Reference value :  1.92502e-05
 Reference value :  1.92506e-05
 Reference value :  1.92513e-05
 Reference value :  1.92521e-05
 Reference value :  1.92535e-05
 Reference value :  1.92546e-05
 Reference value :  1.92560e-05
 Reference value :  1.92631e-05
 Reference value :  1.93268e-05
 Reference value :  1.95020e-05
 Reference value :  1.95059e-05
 Reference value :  1.95079e-05
 Reference value :  1.95122e-05
 Reference value :  1.95195e-05
 Reference value :  1.95463e-05
 Reference value :  1.96354e-05
 Reference value :  1.97501e-05
 Reference value :  1.97502e-05
 Reference value :  1.97503e-05
 Reference value :  1.97508e-05
 Reference value :  1.97521e-05
 Reference value :  1.97532e-05
 Reference value :  1.97536e-05
 Reference value :  1.97547e-05
 Reference value :  1.97568e-05
 Reference value :  1.97630e-05
 Reference value :  1.97933e-05
 Reference value :  2.00000e-05
 Reference value :  2.00000e-05
 Reference value :  2.00001e-05
 Reference value :  2.00001e-05
 Reference value :  2.00002e-05
 Reference value :  2.00005e-05
 Reference value :  2.00013e-05
 Reference value :  2.00028e-05
 Reference value :  2.00039e-05
 Reference value :  2.00052e-05
 Reference value :  2.00059e-05
 Reference value :  2.00075e-05
 Reference value :  2.00101e-05
 Reference value :  2.00128e-05
 Reference value :  2.00138e-05
 Reference value :  2.00158e-05
 Reference value :  2.00179e-05
 Reference value :  2.00207e-05
 Reference value :  2.00295e-05
 Reference value :  2.00396e-05
 Reference value :  2.00489e-05
 Reference value :  2.00575e-05
 Reference value :  2.00680e-05
 Reference value :  2.01035e-05
 Reference value :  2.02054e-05
 Reference value :  2.02501e-05
 Reference value :  2.02502e-05
 Reference value :  2.02503e-05
 Reference value :  2.02508e-05
 Reference value :  2.02517e-05
 Reference value :  2.02535e-05
 Reference value :  2.02545e-05
 Reference value :  2.02558e-05
 Reference value :  2.02581e-05
 Reference value :  2.02666e-05
 Reference value :  2.03214e-05
 Reference value :  2.05021e-05
 Reference value :  2.05063e-05
 Reference value :  2.05084e-05
 Reference value :  2.05129e-05
 Reference value :  2.05220e-05
 Reference value :  2.05464e-05
 Reference value :  2.06300e-05
 Reference value :  2.07501e-05
 Reference value :  2.07502e-05
 Reference value :  2.07503e-05
 Reference value :  2.07504e-05
 Reference value :  2.07513e-05
 Reference value :  2.07521e-05
 Reference value :  2.07532e-05
 Reference value :  2.07542e-05
 Reference value :  2.07552e-05
 Reference value :  2.07567e-05
 Reference value :  2.07586e-05
 Reference value :  2.07633e-05
 Reference value :  2.07961e-05
 Reference value :  2.10000e-05
 Reference value :  2.10001e-05
 Reference value :  2.10002e-05
 Reference value :  2.10005e-05
 Reference value :  2.10013e-05
 Reference value :  2.10028e-05
 Reference value :  2.10039e-05
 Reference value :  2.10052e-05
 Reference value :  2.10065e-05
 Reference value :  2.10094e-05
 Reference value :  2.10116e-05
 Reference value :  2.10135e-05
 Reference value :  2.10153e-05
 Reference value :  2.10173e-05
 Reference value :  2.10185e-05
 Reference value :  2.10237e-05
 Reference value :  2.10322e-05
 Reference value :  2.10436e-05
 Reference value :  2.10502e-05
 Reference value :  2.10559e-05
 Reference value :  2.10714e-05
 Reference value :  2.11137e-05
 Reference value :  2.12501e-05
 Reference value :  2.12502e-05
 Reference value :  2.12502e-05
 Reference value :  2.12504e-05
 Reference value :  2.12510e-05
 Reference value :  2.12519e-05
 Reference value :  2.12531e-05
 Reference value :  2.12538e-05
 Reference value :  2.12544e-05
 Reference value :  2.12556e-05
 Reference value :  2.12565e-05
 Reference value :  2.12613e-05
 Reference value :  2.12846e-05
 Reference value :  2.14656e-05
 Reference value :  2.15000e-05
 Reference value :  2.15001e-05
 Reference value :  2.15002e-05
 Reference value :  2.15006e-05
 Reference value :  2.15015e-05
 Reference value :  2.15024e-05
 Reference value :  2.15035e-05
 Reference value :  2.15049e-05
 Reference value :  2.15064e-05
 Reference value :  2.15083e-05
 Reference value :  2.15113e-05
 Reference value :  2.15269e-05
 Reference value :  2.15727e-05
 Reference value :  2.17501e-05
 Reference value :  2.17502e-05
 Reference value :  2.17502e-05
 Reference value :  2.17503e-05
 Reference value :  2.17504e-05
 Reference value :  2.17507e-05
 Reference value :  2.17515e-05
 Reference value :  2.17524e-05
 Reference value :  2.17538e-05
 Reference value :  2.17550e-05
 Reference value :  2.17564e-05
 Reference value :  2.17612e-05
 Reference value :  2.17829e-05
 Reference value :  2.19399e-05
 Reference value :  2.20011e-05
 Reference value :  2.20044e-05
 Reference value :  2.20064e-05
 Reference value :  2.20082e-05
 Reference value :  2.20107e-05
 Reference value :  2.20120e-05
 Reference value :  2.20143e-05
 Reference value :  2.20164e-05
 Reference value :  2.20185e-05
 Reference value :  2.20229e-05
 Reference value :  2.20345e-05
 Reference value :  2.20439e-05
 Reference value :  2.20528e-05
 Reference value :  2.20627e-05
 Reference value :  2.20821e-05
 Reference value :  2.21508e-05
 Reference value :  2.22501e-05
 Reference value :  2.22502e-05
 Reference value :  2.22503e-05
 Reference value :  2.22504e-05
 Reference value :  2.22509e-05
 Reference value :  2.22515e-05
 Reference value :  2.22524e-05
 Reference value :  2.22537e-05
 Reference value :  2.22542e-05
 Reference value :  2.22554e-05
 Reference value :  2.22561e-05
 Reference value :  2.22604e-05
 Reference value :  2.22777e-05
 Reference value :  2.23735e-05
 Reference value :  2.25000e-05
 Reference value :  2.25001e-05
 Reference value :  2.25002e-05
 Reference value :  2.25009e-05
 Reference value :  2.25024e-05
 Reference value :  2.25035e-05
 Reference value :  2.25047e-05
 Reference value :  2.25065e-05
 Reference value :  2.25084e-05
 Reference value :  2.25103e-05
 Reference value :  2.25126e-05
 Reference value :  2.25377e-05
 Reference value :  2.27501e-05
 Reference value :  2.27502e-05
 Reference value :  2.27503e-05
 Reference value :  2.27505e-05
 Reference value :  2.27515e-05
 Reference value :  2.27524e-05
 Reference value :  2.27538e-05
 Reference value :  2.27550e-05
 Reference value :  2.27564e-05
 Reference value :  2.27581e-05
 Reference value :  2.27619e-05
 Reference value :  2.27729e-05
 Reference value :  2.28165e-05
 Reference value :  2.30000e-05
 Reference value :  2.30013e-05
 Reference value :  2.30052e-05
 Reference value :  2.30077e-05
 Reference value :  2.30112e-05
 Reference value :  2.30134e-05
 Reference value :  2.30150e-05
 Reference value :  2.30170e-05
 Reference value :  2.30205e-05
 Reference value :  2.30353e-05
 Reference value :  2.30555e-05
 Reference value :  2.31004e-05
 Reference value :  2.31929e-05
 Reference value :  2.32501e-05
 Reference value :  2.32502e-05
 Reference value :  2.32502e-05
 Reference value :  2.32504e-05
 Reference value :  2.32507e-05
 Reference value :  2.32511e-05
 Reference value :  2.32515e-05
 Reference value :  2.32524e-05
 Reference value :  2.32537e-05
 Reference value :  2.32548e-05
 Reference value :  2.32562e-05
 Reference value :  2.32606e-05
 Reference value :  2.32790e-05
 Reference value :  2.33776e-05
 Reference value :  2.35000e-05
 Reference value :  2.35001e-05
 Reference value :  2.35001e-05
 Reference value :  2.35003e-05
 Reference value :  2.35009e-05
 Reference value :  2.35020e-05
 Reference value :  2.35029e-05
 Reference value :  2.35041e-05
 Reference value :  2.35056e-05
 Reference value :  2.35074e-05
 Reference value :  2.35093e-05
 Reference value :  2.35114e-05
 Reference value :  2.35187e-05
 Reference value :  2.35586e-05
 Reference value :  2.37501e-05
 Reference value :  2.37502e-05
 Reference value :  2.37502e-05
 Reference value :  2.37504e-05
 Reference value :  2.37510e-05
 Reference value :  2.37519e-05
 Reference value :  2.37531e-05
 Reference value :  2.37538e-05
 Reference value :  2.37550e-05
 Reference value :  2.37564e-05
 Reference value :  2.37581e-05
 Reference value :  2.37619e-05
 Reference value :  2.37729e-05
 Reference value :  2.38165e-05
 Reference value :  2.40000e-05
 Reference value :  2.40001e-05
 Reference value :  2.40001e-05
 Reference value :  2.40003e-05
 Reference value :  2.40009e-05
 Reference value :  2.40024e-05
 Reference value :  2.40035e-05
 Reference value :  2.40046e-05
 Reference value :  2.40058e-05
 Reference value :  2.40073e-05
 Reference value :  2.40097e-05
 Reference value :  2.40118e-05
 Reference value :  2.40138e-05
 Reference value :  2.40155e-05
 Reference value :  2.40187e-05
 Reference value :  2.40284e-05
 Reference value :  2.40512e-05
 Reference value :  2.40699e-05
 Reference value :  2.41080e-05
 Reference value :  2.41428e-05
 Reference value :  2.42501e-05
 Reference value :  2.42502e-05
 Reference value :  2.42503e-05
 Reference value :  2.42505e-05
 Reference value :  2.42514e-05
 Reference value :  2.42519e-05
 Reference value :  2.42538e-05
 Reference value :  2.42550e-05
 Reference value :  2.42563e-05
 Reference value :  2.42609e-05
 Reference value :  2.43009e-05
 Reference value :  2.45000e-05
 Reference value :  2.45001e-05
 Reference value :  2.45002e-05
 Reference value :  2.45006e-05
 Reference value :  2.45015e-05
 Reference value :  2.45024e-05
 Reference value :  2.45035e-05
 Reference value :  2.45049e-05
 Reference value :  2.45064e-05
 Reference value :  2.45083e-05
 Reference value :  2.45102e-05
 Reference value :  2.45124e-05
 Reference value :  2.45190e-05
 Reference value :  2.45734e-05
 Reference value :  2.47501e-05
 Reference value :  2.47502e-05
 Reference value :  2.47503e-05
 Reference value :  2.47505e-05
 Reference value :  2.47515e-05
 Reference value :  2.47531e-05
 Reference value :  2.47544e-05
 Reference value :  2.47557e-05
 Reference value :  2.47573e-05
 Reference value :  2.47646e-05
 Reference value :  2.48503e-05
 Reference value :  2.50000e-05
 Reference value :  2.50001e-05
 Reference value :  2.50002e-05
 Reference value :  2.50003e-05
 Reference value :  2.50009e-05
 Reference value :  2.50020e-05
 Reference value :  2.50030e-05
 Reference value :  2.50041e-05
 Reference value :  2.50053e-05
 Reference value :  2.50074e-05
 Reference value :  2.50090e-05
 Reference value :  2.50110e-05
 Reference value :  2.50257e-05
 Reference value :  2.52501e-05
 Reference value :  2.52502e-05
 Reference value :  2.52502e-05
 Reference value :  2.52504e-05
 Reference value :  2.52512e-05
 Reference value :  2.52520e-05
 Reference value :  2.52533e-05
 Reference value :  2.52550e-05
 Reference value :  2.52569e-05
 Reference value :  2.52585e-05
 Reference value :  2.52680e-05
 Reference value :  2.55000e-05
 Reference value :  2.55015e-05
 Reference value :  2.55060e-05
 Reference value :  2.55111e-05
 Reference value :  2.55205e-05
 Reference value :  2.55253e-05
 Reference value :  2.55287e-05
 Reference value :  2.55314e-05
 Reference value :  2.55338e-05
 Reference value :  2.55371e-05
 Reference value :  2.55401e-05
 Reference value :  2.55442e-05
 Reference value :  2.55555e-05
 Reference value :  2.55863e-05
 Reference value :  2.56264e-05
 Reference value :  2.57229e-05
 Reference value :  2.57501e-05
 Reference value :  2.57502e-05
 Reference value :  2.57502e-05
 Reference value :  2.57503e-05
 Reference value :  2.57504e-05
 Reference value :  2.57508e-05
 Reference value :  2.57517e-05
 Reference value :  2.57527e-05
 Reference value :  2.57539e-05
 Reference value :  2.57551e-05
 Reference value :  2.57559e-05
 Reference value :  2.57581e-05
 Reference value :  2.57745e-05
 Reference value :  2.58844e-05
 Reference value :  2.60000e-05
 Reference value :  2.60001e-05
 Reference value :  2.60002e-05
 Reference value :  2.60009e-05
 Reference value :  2.60018e-05
 Reference value :  2.60028e-05
 Reference value :  2.60033e-05
 Reference value :  2.60045e-05
 Reference value :  2.60075e-05
 Reference value :  2.60111e-05
 Reference value :  2.60137e-05
 Reference value :  2.60172e-05
 Reference value :  2.60273e-05
 Reference value :  2.60705e-05
 Reference value :  2.61833e-05
 Reference value :  2.62501e-05
 Reference value :  2.62502e-05
 Reference value :  2.62502e-05
 Reference value :  2.62503e-05
 Reference value :  2.62506e-05
 Reference value :  2.62513e-05
 Reference value :  2.62521e-05
 Reference value :  2.62535e-05
 Reference value :  2.62540e-05
 Reference value :  2.62553e-05
 Reference value :  2.62569e-05
 Reference value :  2.62602e-05
 Reference value :  2.62768e-05
 Reference value :  2.63842e-05
 Reference value :  2.65021e-05
 Reference value :  2.65063e-05
 Reference value :  2.65084e-05
 Reference value :  2.65122e-05
 Reference value :  2.65136e-05
 Reference value :  2.65161e-05
 Reference value :  2.65189e-05
 Reference value :  2.65255e-05
 Reference value :  2.65380e-05
 Reference value :  2.65718e-05
 Reference value :  2.66260e-05
 Reference value :  2.66450e-05
 Reference value :  2.66583e-05
 Reference value :  2.66807e-05
 Reference value :  2.67211e-05
 Reference value :  2.67501e-05
 Reference value :  2.67502e-05
 Reference value :  2.67502e-05
 Reference value :  2.67504e-05
 Reference value :  2.67513e-05
 Reference value :  2.67527e-05
 Reference value :  2.67536e-05
 Reference value :  2.67546e-05
 Reference value :  2.67559e-05
 Reference value :  2.67600e-05
 Reference value :  2.67756e-05
 Reference value :  2.68941e-05
 Reference value :  2.70000e-05
 Reference value :  2.70001e-05
 Reference value :  2.70002e-05
 Reference value :  2.70009e-05
 Reference value :  2.70017e-05
 Reference value :  2.70027e-05
 Reference value :  2.70038e-05
 Reference value :  2.70052e-05
 Reference value :  2.70067e-05
 Reference value :  2.70083e-05
 Reference value :  2.70115e-05
 Reference value :  2.70411e-05
 Reference value :  2.72501e-05
 Reference value :  2.72502e-05
 Reference value :  2.72503e-05
 Reference value :  2.72506e-05
 Reference value :  2.72513e-05
 Reference value :  2.72521e-05
 Reference value :  2.72535e-05
 Reference value :  2.72546e-05
 Reference value :  2.72560e-05
 Reference value :  2.72576e-05
 Reference value :  2.72598e-05
 Reference value :  2.72667e-05
 Reference value :  2.73164e-05
 Reference value :  2.75000e-05
 Reference value :  2.75001e-05
 Reference value :  2.75001e-05
 Reference value :  2.75003e-05
 Reference value :  2.75013e-05
 Reference value :  2.75028e-05
 Reference value :  2.75033e-05
 Reference value :  2.75052e-05
 Reference value :  2.75065e-05
 Reference value :  2.75094e-05
 Reference value :  2.75115e-05
 Reference value :  2.75135e-05
 Reference value :  2.75153e-05
 Reference value :  2.75173e-05
 Reference value :  2.75196e-05
 Reference value :  2.75274e-05
 Reference value :  2.75644e-05
 Reference value :  2.75981e-05
 Reference value :  2.76090e-05
 Reference value :  2.76279e-05
 Reference value :  2.76454e-05
 Reference value :  2.77074e-05
 Reference value :  2.77501e-05
 Reference value :  2.77502e-05
 Reference value :  2.77503e-05
 Reference value :  2.77508e-05
 Reference value :  2.77517e-05
 Reference value :  2.77527e-05
 Reference value :  2.77540e-05
 Reference value :  2.77560e-05
 Reference value :  2.77601e-05
 Reference value :  2.77764e-05
 Reference value :  2.78923e-05
 Reference value :  2.80020e-05
 Reference value :  2.80059e-05
 Reference value :  2.80079e-05
 Reference value :  2.80122e-05
 Reference value :  2.80195e-05
 Reference value :  2.80279e-05
 Reference value :  2.80463e-05
 Reference value :  2.80911e-05
 Reference value :  2.82501e-05
 Reference value :  2.82501e-05
 Reference value :  2.82502e-05
 Reference value :  2.82503e-05
 Reference value :  2.82504e-05
 Reference value :  2.82513e-05
 Reference value :  2.82521e-05
 Reference value :  2.82527e-05
 Reference value :  2.82536e-05
 Reference value :  2.82547e-05
 Reference value :  2.82560e-05
 Reference value :  2.82601e-05
 Reference value :  2.82760e-05
 Reference value :  2.83279e-05
 Reference value :  2.85000e-05
 Reference value :  2.85001e-05
 Reference value :  2.85001e-05
 Reference value :  2.85002e-05
 Reference value :  2.85003e-05
 Reference value :  2.85009e-05
 Reference value :  2.85018e-05
 Reference value :  2.85028e-05
 Reference value :  2.85033e-05
 Reference value :  2.85045e-05
 Reference value :  2.85059e-05
 Reference value :  2.85075e-05
 Reference value :  2.85101e-05
 Reference value :  2.85128e-05
 Reference value :  2.85147e-05
 Reference value :  2.85168e-05
 Reference value :  2.85191e-05
 Reference value :  2.85224e-05
 Reference value :  2.85295e-05
 Reference value :  2.85396e-05
 Reference value :  2.85450e-05
 Reference value :  2.85489e-05
 Reference value :  2.85575e-05
 Reference value :  2.85680e-05
 Reference value :  2.85738e-05
 Reference value :  2.85799e-05
 Reference value :  2.86230e-05
 Reference value :  2.87501e-05
 Reference value :  2.87502e-05
 Reference value :  2.87503e-05
 Reference value :  2.87506e-05
 Reference value :  2.87517e-05
 Reference value :  2.87535e-05
 Reference value :  2.87545e-05
 Reference value :  2.87558e-05
 Reference value :  2.87598e-05
 Reference value :  2.87666e-05
 Reference value :  2.87901e-05
 Reference value :  2.88840e-05
 Reference value :  2.90021e-05
 Reference value :  2.90063e-05
 Reference value :  2.90084e-05
 Reference value :  2.90106e-05
 Reference value :  2.90152e-05
 Reference value :  2.90220e-05
 Reference value :  2.90464e-05
 Reference value :  2.91300e-05
 Reference value :  2.92501e-05
 Reference value :  2.92502e-05
 Reference value :  2.92502e-05
 Reference value :  2.92504e-05
 Reference value :  2.92513e-05
 Reference value :  2.92521e-05
 Reference value :  2.92532e-05
 Reference value :  2.92542e-05
 Reference value :  2.92552e-05
 Reference value :  2.92560e-05
 Reference value :  2.92576e-05
 Reference value :  2.92597e-05
 Reference value :  2.92633e-05
 Reference value :  2.92805e-05
 Reference value :  2.94317e-05
 Reference value :  2.95000e-05
 Reference value :  2.95001e-05
 Reference value :  2.95002e-05
 Reference value :  2.95003e-05
 Reference value :  2.95009e-05
 Reference value :  2.95023e-05
 Reference value :  2.95028e-05
 Reference value :  2.95033e-05
 Reference value :  2.95046e-05
 Reference value :  2.95058e-05
 Reference value :  2.95073e-05
 Reference value :  2.95094e-05
 Reference value :  2.95116e-05
 Reference value :  2.95127e-05
 Reference value :  2.95135e-05
 Reference value :  2.95153e-05
 Reference value :  2.95173e-05
 Reference value :  2.95185e-05
 Reference value :  2.95216e-05
 Reference value :  2.95279e-05
 Reference value :  2.95322e-05
 Reference value :  2.95436e-05
 Reference value :  2.95502e-05
 Reference value :  2.95559e-05
 Reference value :  2.95714e-05
 Reference value :  2.96435e-05
 Reference value :  2.97501e-05
 Reference value :  2.97502e-05
 Reference value :  2.97503e-05
 Reference value :  2.97504e-05
 Reference value :  2.97510e-05
 Reference value :  2.97519e-05
 Reference value :  2.97531e-05
 Reference value :  2.97544e-05
 Reference value :  2.97556e-05
 Reference value :  2.97573e-05
 Reference value :  2.97649e-05
 Reference value :  2.98104e-05
 Reference value :  3.00000e-05
 Reference value :  3.00001e-05
 Reference value :  3.00001e-05
 Reference value :  3.00003e-05
 Reference value :  3.00015e-05
 Reference value :  3.00024e-05
 Reference value :  3.00035e-05
 Reference value :  3.00049e-05
 Reference value :  3.00064e-05
 Reference value :  3.00083e-05
 Reference value :  3.00102e-05
 Reference value :  3.00125e-05
 Reference value :  3.00427e-05
 Reference value :  3.02501e-05
 Reference value :  3.02502e-05
 Reference value :  3.02503e-05
 Reference value :  3.02505e-05
 Reference value :  3.02515e-05
 Reference value :  3.02524e-05
 Reference value :  3.02538e-05
 Reference value :  3.02544e-05
 Reference value :  3.02557e-05
 Reference value :  3.02564e-05
 Reference value :  3.02612e-05
 Reference value :  3.02829e-05
 Reference value :  3.04399e-05
 Reference value :  3.05011e-05
 Reference value :  3.05044e-05
 Reference value :  3.05055e-05
 Reference value :  3.05064e-05
 Reference value :  3.05082e-05
 Reference value :  3.05107e-05
 Reference value :  3.05120e-05
 Reference value :  3.05143e-05
 Reference value :  3.05164e-05
 Reference value :  3.05185e-05
 Reference value :  3.05228e-05
 Reference value :  3.05342e-05
 Reference value :  3.05439e-05
 Reference value :  3.05582e-05
 Reference value :  3.05692e-05
 Reference value :  3.06215e-05
 Reference value :  3.07501e-05
 Reference value :  3.07502e-05
 Reference value :  3.07503e-05
 Reference value :  3.07505e-05
 Reference value :  3.07509e-05
 Reference value :  3.07515e-05
 Reference value :  3.07524e-05
 Reference value :  3.07542e-05
 Reference value :  3.07561e-05
 Reference value :  3.07604e-05
 Reference value :  3.07777e-05
 Reference value :  3.08220e-05
 Reference value :  3.10000e-05
 Reference value :  3.10000e-05
 Reference value :  3.10001e-05
 Reference value :  3.10002e-05
 Reference value :  3.10009e-05
 Reference value :  3.10024e-05
 Reference value :  3.10035e-05
 Reference value :  3.10047e-05
 Reference value :  3.10065e-05
 Reference value :  3.10084e-05
 Reference value :  3.10103e-05
 Reference value :  3.10126e-05
 Reference value :  3.10255e-05
 Reference value :  3.11013e-05
 Reference value :  3.12501e-05
 Reference value :  3.12502e-05
 Reference value :  3.12502e-05
 Reference value :  3.12503e-05
 Reference value :  3.12504e-05
 Reference value :  3.12510e-05
 Reference value :  3.12524e-05
 Reference value :  3.12538e-05
 Reference value :  3.12550e-05
 Reference value :  3.12564e-05
 Reference value :  3.12581e-05
 Reference value :  3.12603e-05
 Reference value :  3.12672e-05
 Reference value :  3.12948e-05
 Reference value :  3.14211e-05
 Reference value :  3.15000e-05
 Reference value :  3.15001e-05
 Reference value :  3.15001e-05
 Reference value :  3.15002e-05
 Reference value :  3.15006e-05
 Reference value :  3.15015e-05
 Reference value :  3.15024e-05
 Reference value :  3.15035e-05
 Reference value :  3.15046e-05
 Reference value :  3.15058e-05
 Reference value :  3.15082e-05
 Reference value :  3.15107e-05
 Reference value :  3.15129e-05
 Reference value :  3.15146e-05
 Reference value :  3.15155e-05
 Reference value :  3.15175e-05
 Reference value :  3.15218e-05
 Reference value :  3.15293e-05
 Reference value :  3.15389e-05
 Reference value :  3.15535e-05
 Reference value :  3.15965e-05
 Reference value :  3.16611e-05
 Reference value :  3.16853e-05
 Reference value :  3.17501e-05
 Reference value :  3.17502e-05
 Reference value :  3.17502e-05
 Reference value :  3.17503e-05
 Reference value :  3.17505e-05
 Reference value :  3.17510e-05
 Reference value :  3.17519e-05
 Reference value :  3.17531e-05
 Reference value :  3.17543e-05
 Reference value :  3.17555e-05
 Reference value :  3.17572e-05
 Reference value :  3.17700e-05
 Reference value :  3.18423e-05
 Reference value :  3.20000e-05
 Reference value :  3.20001e-05
 Reference value :  3.20001e-05
 Reference value :  3.20003e-05
 Reference value :  3.20009e-05
 Reference value :  3.20020e-05
 Reference value :  3.20029e-05
 Reference value :  3.20035e-05
 Reference value :  3.20041e-05
 Reference value :  3.20056e-05
 Reference value :  3.20074e-05
 Reference value :  3.20093e-05
 Reference value :  3.20114e-05
 Reference value :  3.20254e-05
 Reference value :  3.21854e-05
 Reference value :  3.22502e-05
 Reference value :  3.22502e-05
 Reference value :  3.22504e-05
 Reference value :  3.22510e-05
 Reference value :  3.22519e-05
 Reference value :  3.22531e-05
 Reference value :  3.22544e-05
 Reference value :  3.22564e-05
 Reference value :  3.22581e-05
 Reference value :  3.22619e-05
 Reference value :  3.22729e-05
 Reference value :  3.23165e-05
 Reference value :  3.25000e-05
 Reference value :  3.25001e-05
 Reference value :  3.25001e-05
 Reference value :  3.25003e-05
 Reference value :  3.25015e-05
 Reference value :  3.25024e-05
 Reference value :  3.25035e-05
 Reference value :  3.25046e-05
 Reference value :  3.25058e-05
 Reference value :  3.25073e-05
 Reference value :  3.25097e-05
 Reference value :  3.25107e-05
 Reference value :  3.25129e-05
 Reference value :  3.25138e-05
 Reference value :  3.25155e-05
 Reference value :  3.25175e-05
 Reference value :  3.25200e-05
 Reference value :  3.25244e-05
 Reference value :  3.25328e-05
 Reference value :  3.25512e-05
 Reference value :  3.25699e-05
 Reference value :  3.25889e-05
 Reference value :  3.26243e-05
 Reference value :  3.26798e-05
 Reference value :  3.27501e-05
 Reference value :  3.27502e-05
 Reference value :  3.27503e-05
 Reference value :  3.27504e-05
 Reference value :  3.27507e-05
 Reference value :  3.27514e-05
 Reference value :  3.27519e-05
 Reference value :  3.27524e-05
 Reference value :  3.27531e-05
 Reference value :  3.27538e-05
 Reference value :  3.27543e-05
 Reference value :  3.27555e-05
 Reference value :  3.27571e-05
 Reference value :  3.27609e-05
 Reference value :  3.27699e-05
 Reference value :  3.28009e-05
 Reference value :  3.29194e-05
 Reference value :  3.30000e-05
 Reference value :  3.30001e-05
 Reference value :  3.30001e-05
 Reference value :  3.30002e-05
 Reference value :  3.30003e-05
 Reference value :  3.30009e-05
 Reference value :  3.30020e-05
 Reference value :  3.30024e-05
 Reference value :  3.30035e-05
 Reference value :  3.30049e-05
 Reference value :  3.30064e-05
 Reference value :  3.30083e-05
 Reference value :  3.30102e-05
 Reference value :  3.30112e-05
 Reference value :  3.30148e-05
 Reference value :  3.30269e-05
 Reference value :  3.31344e-05
 Reference value :  3.32501e-05
 Reference value :  3.32502e-05
 Reference value :  3.32503e-05
 Reference value :  3.32504e-05
 Reference value :  3.32507e-05
 Reference value :  3.32515e-05
 Reference value :  3.32524e-05
 Reference value :  3.32538e-05
 Reference value :  3.32544e-05
 Reference value :  3.32557e-05
 Reference value :  3.32573e-05
 Reference value :  3.32612e-05
 Reference value :  3.32830e-05
 Reference value :  3.34401e-05
 Reference value :  3.35010e-05
 Reference value :  3.35030e-05
 Reference value :  3.35041e-05
 Reference value :  3.35051e-05
 Reference value :  3.35060e-05
 Reference value :  3.35078e-05
 Reference value :  3.35096e-05
 Reference value :  3.35141e-05
 Reference value :  3.35394e-05
 Reference value :  3.37501e-05
 Reference value :  3.37501e-05
 Reference value :  3.37502e-05
 Reference value :  3.37503e-05
 Reference value :  3.37508e-05
 Reference value :  3.37510e-05
 Reference value :  3.37514e-05
 Reference value :  3.37518e-05
 Reference value :  3.37523e-05
 Reference value :  3.37529e-05
 Reference value :  3.37545e-05
 Reference value :  3.37564e-05
 Reference value :  3.37591e-05
 Reference value :  3.37643e-05
 Reference value :  3.37771e-05
 Reference value :  3.38087e-05
 Reference value :  3.40000e-05
No. of Data Rows : 4765
ngspice-44 done
