
Note: Compatibility modes selected: hs a


Circuit: ** sch_path: /home/samantha/cace/sar-adc-using-sky130-pdk/runs/run_2025-09-01_22-51-36/parameters/sndr/run_0/sndr_enob_fom.sch

option SCALE: Scale is set to 1e-06 for instance and model parameters
option SCALE: Scale is set to 1e-06 for instance and model parameters
option SCALE: Scale is set to 1e-06 for instance and model parameters
option SCALE: Scale is set to 1e-06 for instance and model parameters
Doing analysis at TEMP = 27.000000 and TNOM = 27.000000

Using KLU as Direct Linear Solver
Operating point simulation skipped by 'uic',
  now using transient initial conditions.
 Reference value :  1.00000e-12
 Reference value :  1.02386e-12
 Reference value :  1.07159e-12
 Reference value :  1.14212e-12
 Reference value :  1.22025e-12
 Reference value :  1.35924e-12
 Reference value :  1.57504e-12
 Reference value :  1.90708e-12
 Reference value :  2.54090e-12
 Reference value :  3.47539e-12
 Reference value :  4.89854e-12
 Reference value :  6.43056e-12
 Reference value :  8.78311e-12
 Reference value :  1.27891e-11
 Reference value :  1.81550e-11
 Reference value :  2.51084e-11
 Reference value :  3.40560e-11
 Reference value :  4.41090e-11
 Reference value :  5.97306e-11
 Reference value :  7.77869e-11
 Reference value :  1.00000e-10
 Reference value :  1.00429e-10
 Reference value :  1.01286e-10
 Reference value :  1.03000e-10
 Reference value :  1.06408e-10
 Reference value :  1.13224e-10
 Reference value :  1.26856e-10
 Reference value :  1.54121e-10
 Reference value :  1.91584e-10
 Reference value :  2.40008e-10
 Reference value :  3.08876e-10
 Reference value :  4.35747e-10
 Reference value :  6.66719e-10
 Reference value :  9.58446e-10
 Reference value :  1.38652e-09
 Reference value :  1.89573e-09
 Reference value :  2.65337e-09
 Reference value :  3.53325e-09
 Reference value :  4.46162e-09
 Reference value :  5.30618e-09
 Reference value :  6.21410e-09
 Reference value :  7.06026e-09
 Reference value :  7.96027e-09
 Reference value :  9.00607e-09
 Reference value :  1.01083e-08
 Reference value :  1.09387e-08
 Reference value :  1.17293e-08
 Reference value :  1.26330e-08
 Reference value :  1.35877e-08
 Reference value :  1.45811e-08
 Reference value :  1.57555e-08
 Reference value :  1.68978e-08
 Reference value :  1.81167e-08
 Reference value :  1.94072e-08
 Reference value :  2.08533e-08
 Reference value :  2.28179e-08
 Reference value :  2.40438e-08
 Reference value :  2.57697e-08
 Reference value :  2.75433e-08
 Reference value :  2.99166e-08
 Reference value :  3.26523e-08
 Reference value :  3.55067e-08
 Reference value :  4.12155e-08
 Reference value :  5.17876e-08
 Reference value :  6.76434e-08
 Reference value :  9.87514e-08
 Reference value :  1.35128e-07
 Reference value :  2.07882e-07
 Reference value :  2.50100e-07
 Reference value :  2.50110e-07
 Reference value :  2.50130e-07
 Reference value :  2.50170e-07
 Reference value :  2.50200e-07
 Reference value :  2.50201e-07
 Reference value :  2.50202e-07
 Reference value :  2.50204e-07
 Reference value :  2.50208e-07
 Reference value :  2.50216e-07
 Reference value :  2.50232e-07
 Reference value :  2.50265e-07
 Reference value :  2.50331e-07
 Reference value :  2.50412e-07
 Reference value :  2.50575e-07
 Reference value :  2.50741e-07
 Reference value :  2.51073e-07
 Reference value :  2.51459e-07
 Reference value :  2.52119e-07
 Reference value :  2.52784e-07
 Reference value :  2.53506e-07
 Reference value :  2.54463e-07
 Reference value :  2.55477e-07
 Reference value :  2.56511e-07
 Reference value :  2.57705e-07
 Reference value :  2.58901e-07
 Reference value :  2.60081e-07
 Reference value :  2.61405e-07
 Reference value :  2.63105e-07
 Reference value :  2.65831e-07
 Reference value :  2.69920e-07
 Reference value :  2.77676e-07
 Reference value :  2.90946e-07
 Reference value :  3.15647e-07
 Reference value :  3.35669e-07
 Reference value :  3.46926e-07
 Reference value :  3.56572e-07
 Reference value :  3.62805e-07
 Reference value :  3.69552e-07
 Reference value :  3.76857e-07
 Reference value :  3.83557e-07
 Reference value :  3.91549e-07
 Reference value :  4.06437e-07
 Reference value :  4.22284e-07
 Reference value :  4.49173e-07
 Reference value :  4.86992e-07
 Reference value :  5.00000e-07
 Reference value :  5.00010e-07
 Reference value :  5.00030e-07
 Reference value :  5.00070e-07
 Reference value :  5.00100e-07
 Reference value :  5.00101e-07
 Reference value :  5.00102e-07
 Reference value :  5.00104e-07
 Reference value :  5.00108e-07
 Reference value :  5.00116e-07
 Reference value :  5.00133e-07
 Reference value :  5.00166e-07
 Reference value :  5.00232e-07
 Reference value :  5.00364e-07
 Reference value :  5.00562e-07
 Reference value :  5.00958e-07
 Reference value :  5.01468e-07
 Reference value :  5.02005e-07
 Reference value :  5.02765e-07
 Reference value :  5.03572e-07
 Reference value :  5.04320e-07
 Reference value :  5.05132e-07
 Reference value :  5.06131e-07
 Reference value :  5.07169e-07
 Reference value :  5.08386e-07
 Reference value :  5.09750e-07
 Reference value :  5.11590e-07
 Reference value :  5.13513e-07
 Reference value :  5.15461e-07
 Reference value :  5.17383e-07
 Reference value :  5.19753e-07
 Reference value :  5.23671e-07
 Reference value :  5.26758e-07
 Reference value :  5.30494e-07
 Reference value :  5.34496e-07
 Reference value :  5.38328e-07
 Reference value :  5.43958e-07
 Reference value :  5.49956e-07
 Reference value :  5.59492e-07
 Reference value :  5.72625e-07
 Reference value :  5.98891e-07
 Reference value :  6.45799e-07
 Reference value :  7.30155e-07
 Reference value :  7.50100e-07
 Reference value :  7.50110e-07
 Reference value :  7.50130e-07
 Reference value :  7.50170e-07
 Reference value :  7.50200e-07
 Reference value :  7.50201e-07
 Reference value :  7.50202e-07
 Reference value :  7.50204e-07
 Reference value :  7.50208e-07
 Reference value :  7.50216e-07
 Reference value :  7.50233e-07
 Reference value :  7.50266e-07
 Reference value :  7.50333e-07
 Reference value :  7.50467e-07
 Reference value :  7.50644e-07
 Reference value :  7.50914e-07
 Reference value :  7.51453e-07
 Reference value :  7.52099e-07
 Reference value :  7.52800e-07
 Reference value :  7.53529e-07
 Reference value :  7.54426e-07
 Reference value :  7.55524e-07
 Reference value :  7.56676e-07
 Reference value :  7.57702e-07
 Reference value :  7.58797e-07
 Reference value :  7.59792e-07
 Reference value :  7.60840e-07
 Reference value :  7.62073e-07
 Reference value :  7.63370e-07
 Reference value :  7.64938e-07
 Reference value :  7.66864e-07
 Reference value :  7.69493e-07
 Reference value :  7.72569e-07
 Reference value :  7.77458e-07
 Reference value :  7.87236e-07
 Reference value :  8.04404e-07
 Reference value :  8.36296e-07
 Reference value :  8.96027e-07
 Reference value :  1.00000e-06
 Reference value :  1.00001e-06
 Reference value :  1.00003e-06
 Reference value :  1.00007e-06
 Reference value :  1.00010e-06
 Reference value :  1.00010e-06
 Reference value :  1.00010e-06
 Reference value :  1.00010e-06
 Reference value :  1.00011e-06
 Reference value :  1.00012e-06
 Reference value :  1.00013e-06
 Reference value :  1.00017e-06
 Reference value :  1.00023e-06
 Reference value :  1.00036e-06
 Reference value :  1.00056e-06
 Reference value :  1.00096e-06
 Reference value :  1.00147e-06
 Reference value :  1.00201e-06
 Reference value :  1.00276e-06
 Reference value :  1.00346e-06
 Reference value :  1.00420e-06
 Reference value :  1.00499e-06
 Reference value :  1.00587e-06
 Reference value :  1.00691e-06
 Reference value :  1.00768e-06
 Reference value :  1.00855e-06
 Reference value :  1.00939e-06
 Reference value :  1.01026e-06
 Reference value :  1.01144e-06
 Reference value :  1.01269e-06
 Reference value :  1.01520e-06
 Reference value :  1.01755e-06
 Reference value :  1.01941e-06
 Reference value :  1.02149e-06
 Reference value :  1.02430e-06
 Reference value :  1.02655e-06
 Reference value :  1.02858e-06
 Reference value :  1.03009e-06
 Reference value :  1.03149e-06
 Reference value :  1.03303e-06
 Reference value :  1.03459e-06
 Reference value :  1.03637e-06
 Reference value :  1.03919e-06
 Reference value :  1.04211e-06
 Reference value :  1.04795e-06
 Reference value :  1.05675e-06
 Reference value :  1.07129e-06
 Reference value :  1.09900e-06
 Reference value :  1.14440e-06
 Reference value :  1.20985e-06
 Reference value :  1.25010e-06
 Reference value :  1.25011e-06
 Reference value :  1.25013e-06
 Reference value :  1.25017e-06
 Reference value :  1.25020e-06
 Reference value :  1.25020e-06
 Reference value :  1.25020e-06
 Reference value :  1.25020e-06
 Reference value :  1.25021e-06
 Reference value :  1.25022e-06
 Reference value :  1.25023e-06
 Reference value :  1.25027e-06
 Reference value :  1.25033e-06
 Reference value :  1.25047e-06
 Reference value :  1.25064e-06
 Reference value :  1.25091e-06
 Reference value :  1.25145e-06
 Reference value :  1.25210e-06
 Reference value :  1.25288e-06
 Reference value :  1.25358e-06
 Reference value :  1.25455e-06
 Reference value :  1.25561e-06
 Reference value :  1.25652e-06
 Reference value :  1.25760e-06
 Reference value :  1.25871e-06
 Reference value :  1.25986e-06
 Reference value :  1.26137e-06
 Reference value :  1.26388e-06
 Reference value :  1.26734e-06
 Reference value :  1.27083e-06
 Reference value :  1.27480e-06
 Reference value :  1.27871e-06
 Reference value :  1.28156e-06
 Reference value :  1.28435e-06
 Reference value :  1.28716e-06
 Reference value :  1.29083e-06
 Reference value :  1.29651e-06
 Reference value :  1.30376e-06
 Reference value :  1.31414e-06
 Reference value :  1.32460e-06
 Reference value :  1.33917e-06
 Reference value :  1.36707e-06
 Reference value :  1.39998e-06
 Reference value :  1.46041e-06
 Reference value :  1.50000e-06
 Reference value :  1.50001e-06
 Reference value :  1.50003e-06
 Reference value :  1.50007e-06
 Reference value :  1.50010e-06
 Reference value :  1.50010e-06
 Reference value :  1.50010e-06
 Reference value :  1.50010e-06
 Reference value :  1.50011e-06
 Reference value :  1.50012e-06
 Reference value :  1.50013e-06
 Reference value :  1.50017e-06
 Reference value :  1.50023e-06
 Reference value :  1.50036e-06
 Reference value :  1.50056e-06
 Reference value :  1.50095e-06
 Reference value :  1.50146e-06
 Reference value :  1.50200e-06
 Reference value :  1.50275e-06
 Reference value :  1.50344e-06
 Reference value :  1.50417e-06
 Reference value :  1.50501e-06
 Reference value :  1.50592e-06
 Reference value :  1.50689e-06
 Reference value :  1.50789e-06
 Reference value :  1.50945e-06
 Reference value :  1.51098e-06
 Reference value :  1.51307e-06
 Reference value :  1.51465e-06
 Reference value :  1.51637e-06
 Reference value :  1.51844e-06
 Reference value :  1.52065e-06
 Reference value :  1.52443e-06
 Reference value :  1.52946e-06
 Reference value :  1.53780e-06
 Reference value :  1.55137e-06
 Reference value :  1.57454e-06
 Reference value :  1.62078e-06
 Reference value :  1.69926e-06
 Reference value :  1.75010e-06
 Reference value :  1.75011e-06
 Reference value :  1.75013e-06
 Reference value :  1.75017e-06
 Reference value :  1.75020e-06
 Reference value :  1.75020e-06
 Reference value :  1.75020e-06
 Reference value :  1.75020e-06
 Reference value :  1.75021e-06
 Reference value :  1.75022e-06
 Reference value :  1.75023e-06
 Reference value :  1.75027e-06
 Reference value :  1.75033e-06
 Reference value :  1.75047e-06
 Reference value :  1.75064e-06
 Reference value :  1.75091e-06
 Reference value :  1.75145e-06
 Reference value :  1.75210e-06
 Reference value :  1.75288e-06
 Reference value :  1.75358e-06
 Reference value :  1.75454e-06
 Reference value :  1.75561e-06
 Reference value :  1.75653e-06
 Reference value :  1.75762e-06
 Reference value :  1.75852e-06
 Reference value :  1.75950e-06
 Reference value :  1.76068e-06
 Reference value :  1.76201e-06
 Reference value :  1.76466e-06
 Reference value :  1.76853e-06
 Reference value :  1.77525e-06
 Reference value :  1.78841e-06
 Reference value :  1.81004e-06
 Reference value :  1.85331e-06
 Reference value :  1.93986e-06
 Reference value :  2.00000e-06
 Reference value :  2.00001e-06
 Reference value :  2.00003e-06
 Reference value :  2.00007e-06
 Reference value :  2.00010e-06
 Reference value :  2.00010e-06
 Reference value :  2.00010e-06
 Reference value :  2.00010e-06
 Reference value :  2.00011e-06
 Reference value :  2.00012e-06
 Reference value :  2.00013e-06
 Reference value :  2.00017e-06
 Reference value :  2.00023e-06
 Reference value :  2.00036e-06
 Reference value :  2.00056e-06
 Reference value :  2.00095e-06
 Reference value :  2.00146e-06
 Reference value :  2.00200e-06
 Reference value :  2.00275e-06
 Reference value :  2.00345e-06
 Reference value :  2.00418e-06
 Reference value :  2.00498e-06
 Reference value :  2.00586e-06
 Reference value :  2.00661e-06
 Reference value :  2.00746e-06
 Reference value :  2.00819e-06
 Reference value :  2.00904e-06
 Reference value :  2.01012e-06
 Reference value :  2.01126e-06
 Reference value :  2.01328e-06
 Reference value :  2.01572e-06
 Reference value :  2.01879e-06
 Reference value :  2.02225e-06
 Reference value :  2.02507e-06
 Reference value :  2.02735e-06
 Reference value :  2.02949e-06
 Reference value :  2.03162e-06
 Reference value :  2.03380e-06
 Reference value :  2.03636e-06
 Reference value :  2.03959e-06
 Reference value :  2.04504e-06
 Reference value :  2.05230e-06
 Reference value :  2.06484e-06
 Reference value :  2.07934e-06
 Reference value :  2.09235e-06
 Reference value :  2.10418e-06
 Reference value :  2.11327e-06
 Reference value :  2.12197e-06
 Reference value :  2.12917e-06
 Reference value :  2.13694e-06
 Reference value :  2.14444e-06
 Reference value :  2.15243e-06
 Reference value :  2.16840e-06
 Reference value :  2.18533e-06
 Reference value :  2.21381e-06
 Reference value :  2.25010e-06
 Reference value :  2.25011e-06
 Reference value :  2.25013e-06
 Reference value :  2.25017e-06
 Reference value :  2.25020e-06
 Reference value :  2.25020e-06
 Reference value :  2.25020e-06
 Reference value :  2.25020e-06
 Reference value :  2.25021e-06
 Reference value :  2.25022e-06
 Reference value :  2.25023e-06
 Reference value :  2.25027e-06
 Reference value :  2.25033e-06
 Reference value :  2.25047e-06
 Reference value :  2.25064e-06
 Reference value :  2.25091e-06
 Reference value :  2.25145e-06
 Reference value :  2.25210e-06
 Reference value :  2.25288e-06
 Reference value :  2.25358e-06
 Reference value :  2.25454e-06
 Reference value :  2.25544e-06
 Reference value :  2.25644e-06
 Reference value :  2.25746e-06
 Reference value :  2.25848e-06
 Reference value :  2.26021e-06
 Reference value :  2.26190e-06
 Reference value :  2.26458e-06
 Reference value :  2.26816e-06
 Reference value :  2.27429e-06
 Reference value :  2.28470e-06
 Reference value :  2.30098e-06
 Reference value :  2.33267e-06
 Reference value :  2.39269e-06
 Reference value :  2.48812e-06
 Reference value :  2.50000e-06
 Reference value :  2.50001e-06
 Reference value :  2.50003e-06
 Reference value :  2.50007e-06
 Reference value :  2.50010e-06
 Reference value :  2.50010e-06
 Reference value :  2.50010e-06
 Reference value :  2.50010e-06
 Reference value :  2.50011e-06
 Reference value :  2.50012e-06
 Reference value :  2.50013e-06
 Reference value :  2.50017e-06
 Reference value :  2.50023e-06
 Reference value :  2.50036e-06
 Reference value :  2.50055e-06
 Reference value :  2.50091e-06
 Reference value :  2.50141e-06
 Reference value :  2.50194e-06
 Reference value :  2.50259e-06
 Reference value :  2.50328e-06
 Reference value :  2.50395e-06
 Reference value :  2.50471e-06
 Reference value :  2.50557e-06
 Reference value :  2.50642e-06
 Reference value :  2.50764e-06
 Reference value :  2.50888e-06
 Reference value :  2.51090e-06
 Reference value :  2.51240e-06
 Reference value :  2.51392e-06
 Reference value :  2.51551e-06
 Reference value :  2.51725e-06
 Reference value :  2.51903e-06
 Reference value :  2.52261e-06
 Reference value :  2.52729e-06
 Reference value :  2.53613e-06
 Reference value :  2.55163e-06
 Reference value :  2.57996e-06
 Reference value :  2.63663e-06
 Reference value :  2.74996e-06
 Reference value :  2.75010e-06
 Reference value :  2.75010e-06
 Reference value :  2.75011e-06
 Reference value :  2.75011e-06
 Reference value :  2.75013e-06
 Reference value :  2.75016e-06
 Reference value :  2.75020e-06
 Reference value :  2.75020e-06
 Reference value :  2.75020e-06
 Reference value :  2.75020e-06
 Reference value :  2.75021e-06
 Reference value :  2.75022e-06
 Reference value :  2.75024e-06
 Reference value :  2.75027e-06
 Reference value :  2.75035e-06
 Reference value :  2.75050e-06
 Reference value :  2.75068e-06
 Reference value :  2.75098e-06
 Reference value :  2.75160e-06
 Reference value :  2.75228e-06
 Reference value :  2.75300e-06
 Reference value :  2.75373e-06
 Reference value :  2.75481e-06
 Reference value :  2.75566e-06
 Reference value :  2.75657e-06
 Reference value :  2.75736e-06
 Reference value :  2.75825e-06
 Reference value :  2.75932e-06
 Reference value :  2.76048e-06
 Reference value :  2.76191e-06
 Reference value :  2.76344e-06
 Reference value :  2.76563e-06
 Reference value :  2.76807e-06
 Reference value :  2.77202e-06
 Reference value :  2.77749e-06
 Reference value :  2.78842e-06
 Reference value :  2.81029e-06
 Reference value :  2.85376e-06
 Reference value :  2.94070e-06
 Reference value :  3.00000e-06
 Reference value :  3.00001e-06
 Reference value :  3.00003e-06
 Reference value :  3.00007e-06
 Reference value :  3.00010e-06
 Reference value :  3.00010e-06
 Reference value :  3.00010e-06
 Reference value :  3.00010e-06
 Reference value :  3.00011e-06
 Reference value :  3.00012e-06
 Reference value :  3.00013e-06
 Reference value :  3.00017e-06
 Reference value :  3.00023e-06
 Reference value :  3.00036e-06
 Reference value :  3.00055e-06
 Reference value :  3.00091e-06
 Reference value :  3.00141e-06
 Reference value :  3.00194e-06
 Reference value :  3.00268e-06
 Reference value :  3.00338e-06
 Reference value :  3.00409e-06
 Reference value :  3.00485e-06
 Reference value :  3.00571e-06
 Reference value :  3.00651e-06
 Reference value :  3.00734e-06
 Reference value :  3.00809e-06
 Reference value :  3.00894e-06
 Reference value :  3.01007e-06
 Reference value :  3.01114e-06
 Reference value :  3.01299e-06
 Reference value :  3.01512e-06
 Reference value :  3.01678e-06
 Reference value :  3.01862e-06
 Reference value :  3.02046e-06
 Reference value :  3.02246e-06
 Reference value :  3.02394e-06
 Reference value :  3.02537e-06
 Reference value :  3.02671e-06
 Reference value :  3.02817e-06
 Reference value :  3.02986e-06
 Reference value :  3.03173e-06
 Reference value :  3.03450e-06
 Reference value :  3.03797e-06
 Reference value :  3.04492e-06
 Reference value :  3.05578e-06
 Reference value :  3.07223e-06
 Reference value :  3.08987e-06
 Reference value :  3.10926e-06
 Reference value :  3.12483e-06
 Reference value :  3.13493e-06
 Reference value :  3.14430e-06
 Reference value :  3.15457e-06
 Reference value :  3.17175e-06
 Reference value :  3.18969e-06
 Reference value :  3.21364e-06
 Reference value :  3.24612e-06
 Reference value :  3.25010e-06
 Reference value :  3.25011e-06
 Reference value :  3.25013e-06
 Reference value :  3.25017e-06
 Reference value :  3.25020e-06
 Reference value :  3.25020e-06
 Reference value :  3.25020e-06
 Reference value :  3.25020e-06
 Reference value :  3.25021e-06
 Reference value :  3.25022e-06
 Reference value :  3.25023e-06
 Reference value :  3.25027e-06
 Reference value :  3.25033e-06
 Reference value :  3.25047e-06
 Reference value :  3.25064e-06
 Reference value :  3.25091e-06
 Reference value :  3.25145e-06
 Reference value :  3.25210e-06
 Reference value :  3.25287e-06
 Reference value :  3.25358e-06
 Reference value :  3.25455e-06
 Reference value :  3.25561e-06
 Reference value :  3.25649e-06
 Reference value :  3.25746e-06
 Reference value :  3.25844e-06
 Reference value :  3.25979e-06
 Reference value :  3.26120e-06
 Reference value :  3.26384e-06
 Reference value :  3.26709e-06
 Reference value :  3.27223e-06
 Reference value :  3.28252e-06
 Reference value :  3.29845e-06
 Reference value :  3.32994e-06
 Reference value :  3.39291e-06
 Reference value :  3.50000e-06
 Reference value :  3.50001e-06
 Reference value :  3.50003e-06
 Reference value :  3.50007e-06
 Reference value :  3.50010e-06
 Reference value :  3.50010e-06
 Reference value :  3.50010e-06
 Reference value :  3.50010e-06
 Reference value :  3.50011e-06
 Reference value :  3.50012e-06
 Reference value :  3.50013e-06
 Reference value :  3.50017e-06
 Reference value :  3.50023e-06
 Reference value :  3.50036e-06
 Reference value :  3.50055e-06
 Reference value :  3.50091e-06
 Reference value :  3.50141e-06
 Reference value :  3.50194e-06
 Reference value :  3.50269e-06
 Reference value :  3.50337e-06
 Reference value :  3.50409e-06
 Reference value :  3.50490e-06
 Reference value :  3.50579e-06
 Reference value :  3.50679e-06
 Reference value :  3.50795e-06
 Reference value :  3.50966e-06
 Reference value :  3.51110e-06
 Reference value :  3.51275e-06
 Reference value :  3.51448e-06
 Reference value :  3.51625e-06
 Reference value :  3.51804e-06
 Reference value :  3.52066e-06
 Reference value :  3.52342e-06
 Reference value :  3.52838e-06
 Reference value :  3.53563e-06
 Reference value :  3.54783e-06
 Reference value :  3.56962e-06
 Reference value :  3.60613e-06
 Reference value :  3.67280e-06
 Reference value :  3.75010e-06
 Reference value :  3.75011e-06
 Reference value :  3.75013e-06
 Reference value :  3.75017e-06
 Reference value :  3.75020e-06
 Reference value :  3.75020e-06
 Reference value :  3.75020e-06
 Reference value :  3.75020e-06
 Reference value :  3.75021e-06
 Reference value :  3.75022e-06
 Reference value :  3.75023e-06
 Reference value :  3.75027e-06
 Reference value :  3.75033e-06
 Reference value :  3.75047e-06
 Reference value :  3.75064e-06
 Reference value :  3.75091e-06
 Reference value :  3.75145e-06
 Reference value :  3.75210e-06
 Reference value :  3.75288e-06
 Reference value :  3.75358e-06
 Reference value :  3.75454e-06
 Reference value :  3.75561e-06
 Reference value :  3.75651e-06
 Reference value :  3.75748e-06
 Reference value :  3.75842e-06
 Reference value :  3.75942e-06
 Reference value :  3.76059e-06
 Reference value :  3.76294e-06
 Reference value :  3.76605e-06
 Reference value :  3.77052e-06
 Reference value :  3.77831e-06
 Reference value :  3.79388e-06
 Reference value :  3.82368e-06
 Reference value :  3.88328e-06
 Reference value :  4.00000e-06
 Reference value :  4.00001e-06
 Reference value :  4.00003e-06
 Reference value :  4.00007e-06
 Reference value :  4.00010e-06
 Reference value :  4.00010e-06
 Reference value :  4.00010e-06
 Reference value :  4.00010e-06
 Reference value :  4.00011e-06
 Reference value :  4.00012e-06
 Reference value :  4.00013e-06
 Reference value :  4.00017e-06
 Reference value :  4.00023e-06
 Reference value :  4.00036e-06
 Reference value :  4.00055e-06
 Reference value :  4.00091e-06
 Reference value :  4.00141e-06
 Reference value :  4.00194e-06
 Reference value :  4.00269e-06
 Reference value :  4.00337e-06
 Reference value :  4.00409e-06
 Reference value :  4.00488e-06
 Reference value :  4.00575e-06
 Reference value :  4.00657e-06
 Reference value :  4.00743e-06
 Reference value :  4.00840e-06
 Reference value :  4.00934e-06
 Reference value :  4.01035e-06
 Reference value :  4.01179e-06
 Reference value :  4.01328e-06
 Reference value :  4.01575e-06
 Reference value :  4.01843e-06
 Reference value :  4.02085e-06
 Reference value :  4.02344e-06
 Reference value :  4.02537e-06
 Reference value :  4.02721e-06
 Reference value :  4.02885e-06
 Reference value :  4.03063e-06
 Reference value :  4.03274e-06
 Reference value :  4.03536e-06
 Reference value :  4.03854e-06
 Reference value :  4.04371e-06
 Reference value :  4.04980e-06
 Reference value :  4.05580e-06
 Reference value :  4.06032e-06
 Reference value :  4.06586e-06
 Reference value :  4.07053e-06
 Reference value :  4.07420e-06
 Reference value :  4.07816e-06
 Reference value :  4.08259e-06
 Reference value :  4.08733e-06
 Reference value :  4.09349e-06
 Reference value :  4.09982e-06
 Reference value :  4.10648e-06
 Reference value :  4.11384e-06
 Reference value :  4.12856e-06
 Reference value :  4.14689e-06
 Reference value :  4.17773e-06
 Reference value :  4.22892e-06
 Reference value :  4.25010e-06
 Reference value :  4.25011e-06
 Reference value :  4.25013e-06
 Reference value :  4.25017e-06
 Reference value :  4.25020e-06
 Reference value :  4.25020e-06
 Reference value :  4.25020e-06
 Reference value :  4.25020e-06
 Reference value :  4.25021e-06
 Reference value :  4.25022e-06
 Reference value :  4.25023e-06
 Reference value :  4.25027e-06
 Reference value :  4.25033e-06
 Reference value :  4.25042e-06
 Reference value :  4.25058e-06
 Reference value :  4.25077e-06
 Reference value :  4.25109e-06
 Reference value :  4.25172e-06
 Reference value :  4.25234e-06
 Reference value :  4.25304e-06
 Reference value :  4.25378e-06
 Reference value :  4.25472e-06
 Reference value :  4.25551e-06
 Reference value :  4.25641e-06
 Reference value :  4.25730e-06
 Reference value :  4.25824e-06
 Reference value :  4.25981e-06
 Reference value :  4.26135e-06
 Reference value :  4.26398e-06
 Reference value :  4.26727e-06
 Reference value :  4.27243e-06
 Reference value :  4.28276e-06
 Reference value :  4.30340e-06
 Reference value :  4.34468e-06
 Reference value :  4.42725e-06
 Reference value :  4.50000e-06
 Reference value :  4.50001e-06
 Reference value :  4.50003e-06
 Reference value :  4.50007e-06
 Reference value :  4.50010e-06
 Reference value :  4.50010e-06
 Reference value :  4.50010e-06
 Reference value :  4.50010e-06
 Reference value :  4.50011e-06
 Reference value :  4.50012e-06
 Reference value :  4.50013e-06
 Reference value :  4.50017e-06
 Reference value :  4.50023e-06
 Reference value :  4.50036e-06
 Reference value :  4.50062e-06
 Reference value :  4.50109e-06
 Reference value :  4.50174e-06
 Reference value :  4.50246e-06
 Reference value :  4.50308e-06
 Reference value :  4.50385e-06
 Reference value :  4.50481e-06
 Reference value :  4.50576e-06
 Reference value :  4.50670e-06
 Reference value :  4.50793e-06
 Reference value :  4.50934e-06
 Reference value :  4.51104e-06
 Reference value :  4.51238e-06
 Reference value :  4.51382e-06
 Reference value :  4.51525e-06
 Reference value :  4.51696e-06
 Reference value :  4.51876e-06
 Reference value :  4.52204e-06
 Reference value :  4.52681e-06
 Reference value :  4.53571e-06
 Reference value :  4.55252e-06
 Reference value :  4.58205e-06
 Reference value :  4.64111e-06
 Reference value :  4.75010e-06
 Reference value :  4.75011e-06
 Reference value :  4.75013e-06
 Reference value :  4.75017e-06
 Reference value :  4.75020e-06
 Reference value :  4.75020e-06
 Reference value :  4.75020e-06
 Reference value :  4.75020e-06
 Reference value :  4.75021e-06
 Reference value :  4.75022e-06
 Reference value :  4.75023e-06
 Reference value :  4.75027e-06
 Reference value :  4.75033e-06
 Reference value :  4.75042e-06
 Reference value :  4.75058e-06
 Reference value :  4.75077e-06
 Reference value :  4.75108e-06
 Reference value :  4.75171e-06
 Reference value :  4.75233e-06
 Reference value :  4.75303e-06
 Reference value :  4.75377e-06
 Reference value :  4.75471e-06
 Reference value :  4.75554e-06
 Reference value :  4.75647e-06
 Reference value :  4.75729e-06
 Reference value :  4.75818e-06
 Reference value :  4.75921e-06
 Reference value :  4.76034e-06
 Reference value :  4.76176e-06
 Reference value :  4.76323e-06
 Reference value :  4.76561e-06
 Reference value :  4.76813e-06
 Reference value :  4.77190e-06
 Reference value :  4.77708e-06
 Reference value :  4.78744e-06
 Reference value :  4.80816e-06
 Reference value :  4.84961e-06
 Reference value :  4.93251e-06
 Reference value :  5.00000e-06
 Reference value :  5.00001e-06
 Reference value :  5.00003e-06
 Reference value :  5.00007e-06
 Reference value :  5.00010e-06
 Reference value :  5.00010e-06
 Reference value :  5.00010e-06
 Reference value :  5.00010e-06
 Reference value :  5.00011e-06
 Reference value :  5.00012e-06
 Reference value :  5.00013e-06
 Reference value :  5.00017e-06
 Reference value :  5.00023e-06
 Reference value :  5.00036e-06
 Reference value :  5.00062e-06
 Reference value :  5.00109e-06
 Reference value :  5.00174e-06
 Reference value :  5.00246e-06
 Reference value :  5.00309e-06
 Reference value :  5.00386e-06
 Reference value :  5.00471e-06
 Reference value :  5.00560e-06
 Reference value :  5.00637e-06
 Reference value :  5.00718e-06
 Reference value :  5.00789e-06
 Reference value :  5.00869e-06
 Reference value :  5.00966e-06
 Reference value :  5.01075e-06
 Reference value :  5.01294e-06
 Reference value :  5.01511e-06
 Reference value :  5.01737e-06
 Reference value :  5.01946e-06
 Reference value :  5.02159e-06
 Reference value :  5.02392e-06
 Reference value :  5.02612e-06
 Reference value :  5.02781e-06
 Reference value :  5.02941e-06
 Reference value :  5.03094e-06
 Reference value :  5.03255e-06
 Reference value :  5.03441e-06
 Reference value :  5.03722e-06
 Reference value :  5.04018e-06
 Reference value :  5.04581e-06
 Reference value :  5.05371e-06
 Reference value :  5.06148e-06
 Reference value :  5.06837e-06
 Reference value :  5.07596e-06
 Reference value :  5.08721e-06
 Reference value :  5.09911e-06
 Reference value :  5.12129e-06
 Reference value :  5.13631e-06
 Reference value :  5.15055e-06
 Reference value :  5.16263e-06
 Reference value :  5.17683e-06
 Reference value :  5.20049e-06
 Reference value :  5.22799e-06
 Reference value :  5.25010e-06
 Reference value :  5.25011e-06
 Reference value :  5.25013e-06
 Reference value :  5.25017e-06
 Reference value :  5.25020e-06
 Reference value :  5.25020e-06
 Reference value :  5.25020e-06
 Reference value :  5.25020e-06
 Reference value :  5.25021e-06
 Reference value :  5.25022e-06
 Reference value :  5.25023e-06
 Reference value :  5.25027e-06
 Reference value :  5.25033e-06
 Reference value :  5.25042e-06
 Reference value :  5.25058e-06
 Reference value :  5.25076e-06
 Reference value :  5.25108e-06
 Reference value :  5.25172e-06
 Reference value :  5.25234e-06
 Reference value :  5.25305e-06
 Reference value :  5.25379e-06
 Reference value :  5.25473e-06
 Reference value :  5.25576e-06
 Reference value :  5.25651e-06
 Reference value :  5.25739e-06
 Reference value :  5.25836e-06
 Reference value :  5.25949e-06
 Reference value :  5.26069e-06
 Reference value :  5.26309e-06
 Reference value :  5.26619e-06
 Reference value :  5.27069e-06
 Reference value :  5.27926e-06
 Reference value :  5.29639e-06
 Reference value :  5.33067e-06
 Reference value :  5.37872e-06
 Reference value :  5.47481e-06
 Reference value :  5.50000e-06
 Reference value :  5.50001e-06
 Reference value :  5.50003e-06
 Reference value :  5.50007e-06
 Reference value :  5.50010e-06
 Reference value :  5.50010e-06
 Reference value :  5.50010e-06
 Reference value :  5.50010e-06
 Reference value :  5.50011e-06
 Reference value :  5.50012e-06
 Reference value :  5.50013e-06
 Reference value :  5.50017e-06
 Reference value :  5.50023e-06
 Reference value :  5.50036e-06
 Reference value :  5.50062e-06
 Reference value :  5.50109e-06
 Reference value :  5.50174e-06
 Reference value :  5.50246e-06
 Reference value :  5.50308e-06
 Reference value :  5.50385e-06
 Reference value :  5.50481e-06
 Reference value :  5.50576e-06
 Reference value :  5.50670e-06
 Reference value :  5.50777e-06
 Reference value :  5.50921e-06
 Reference value :  5.51077e-06
 Reference value :  5.51230e-06
 Reference value :  5.51365e-06
 Reference value :  5.51516e-06
 Reference value :  5.51685e-06
 Reference value :  5.51860e-06
 Reference value :  5.52210e-06
 Reference value :  5.52700e-06
 Reference value :  5.53674e-06
 Reference value :  5.55410e-06
 Reference value :  5.58271e-06
 Reference value :  5.63466e-06
 Reference value :  5.73857e-06
 Reference value :  5.75010e-06
 Reference value :  5.75011e-06
 Reference value :  5.75013e-06
 Reference value :  5.75017e-06
 Reference value :  5.75020e-06
 Reference value :  5.75020e-06
 Reference value :  5.75020e-06
 Reference value :  5.75020e-06
 Reference value :  5.75021e-06
 Reference value :  5.75022e-06
 Reference value :  5.75023e-06
 Reference value :  5.75027e-06
 Reference value :  5.75033e-06
 Reference value :  5.75041e-06
 Reference value :  5.75058e-06
 Reference value :  5.75077e-06
 Reference value :  5.75108e-06
 Reference value :  5.75170e-06
 Reference value :  5.75233e-06
 Reference value :  5.75303e-06
 Reference value :  5.75376e-06
 Reference value :  5.75470e-06
 Reference value :  5.75573e-06
 Reference value :  5.75648e-06
 Reference value :  5.75736e-06
 Reference value :  5.75836e-06
 Reference value :  5.75928e-06
 Reference value :  5.76040e-06
 Reference value :  5.76162e-06
 Reference value :  5.76311e-06
 Reference value :  5.76467e-06
 Reference value :  5.76686e-06
 Reference value :  5.76934e-06
 Reference value :  5.77353e-06
 Reference value :  5.78114e-06
 Reference value :  5.79277e-06
 Reference value :  5.81420e-06
 Reference value :  5.84948e-06
 Reference value :  5.91039e-06
 Reference value :  6.00000e-06
 Reference value :  6.00001e-06
 Reference value :  6.00003e-06
 Reference value :  6.00007e-06
 Reference value :  6.00010e-06
 Reference value :  6.00010e-06
 Reference value :  6.00010e-06
 Reference value :  6.00010e-06
 Reference value :  6.00011e-06
 Reference value :  6.00012e-06
 Reference value :  6.00013e-06
 Reference value :  6.00017e-06
 Reference value :  6.00023e-06
 Reference value :  6.00036e-06
 Reference value :  6.00062e-06
 Reference value :  6.00109e-06
 Reference value :  6.00174e-06
 Reference value :  6.00246e-06
 Reference value :  6.00309e-06
 Reference value :  6.00385e-06
 Reference value :  6.00482e-06
 Reference value :  6.00571e-06
 Reference value :  6.00666e-06
 Reference value :  6.00761e-06
 Reference value :  6.00855e-06
 Reference value :  6.00956e-06
 Reference value :  6.01080e-06
 Reference value :  6.01201e-06
 Reference value :  6.01443e-06
 Reference value :  6.01700e-06
 Reference value :  6.01890e-06
 Reference value :  6.02104e-06
 Reference value :  6.02328e-06
 Reference value :  6.02590e-06
 Reference value :  6.02798e-06
 Reference value :  6.02950e-06
 Reference value :  6.03114e-06
 Reference value :  6.03273e-06
 Reference value :  6.03482e-06
 Reference value :  6.03678e-06
 Reference value :  6.03985e-06
 Reference value :  6.04360e-06
 Reference value :  6.04865e-06
 Reference value :  6.05355e-06
 Reference value :  6.05981e-06
 Reference value :  6.06809e-06
 Reference value :  6.07481e-06
 Reference value :  6.08242e-06
 Reference value :  6.09064e-06
 Reference value :  6.09849e-06
 Reference value :  6.11419e-06
 Reference value :  6.14216e-06
 Reference value :  6.19203e-06
 Reference value :  6.23987e-06
 Reference value :  6.25010e-06
 Reference value :  6.25011e-06
 Reference value :  6.25013e-06
 Reference value :  6.25017e-06
 Reference value :  6.25020e-06
 Reference value :  6.25020e-06
 Reference value :  6.25020e-06
 Reference value :  6.25020e-06
 Reference value :  6.25021e-06
 Reference value :  6.25022e-06
 Reference value :  6.25023e-06
 Reference value :  6.25027e-06
 Reference value :  6.25033e-06
 Reference value :  6.25041e-06
 Reference value :  6.25058e-06
 Reference value :  6.25076e-06
 Reference value :  6.25106e-06
 Reference value :  6.25166e-06
 Reference value :  6.25229e-06
 Reference value :  6.25299e-06
 Reference value :  6.25371e-06
 Reference value :  6.25464e-06
 Reference value :  6.25566e-06
 Reference value :  6.25692e-06
 Reference value :  6.25797e-06
 Reference value :  6.25907e-06
 Reference value :  6.26027e-06
 Reference value :  6.26207e-06
 Reference value :  6.26397e-06
 Reference value :  6.26755e-06
 Reference value :  6.27189e-06
 Reference value :  6.28059e-06
 Reference value :  6.29604e-06
 Reference value :  6.32270e-06
 Reference value :  6.37234e-06
 Reference value :  6.41748e-06
 Reference value :  6.46089e-06
 Reference value :  6.50000e-06
 Reference value :  6.50001e-06
 Reference value :  6.50003e-06
 Reference value :  6.50007e-06
 Reference value :  6.50010e-06
 Reference value :  6.50010e-06
 Reference value :  6.50010e-06
 Reference value :  6.50010e-06
 Reference value :  6.50011e-06
 Reference value :  6.50012e-06
 Reference value :  6.50013e-06
 Reference value :  6.50017e-06
 Reference value :  6.50023e-06
 Reference value :  6.50036e-06
 Reference value :  6.50062e-06
 Reference value :  6.50109e-06
 Reference value :  6.50174e-06
 Reference value :  6.50246e-06
 Reference value :  6.50308e-06
 Reference value :  6.50385e-06
 Reference value :  6.50480e-06
 Reference value :  6.50576e-06
 Reference value :  6.50669e-06
 Reference value :  6.50774e-06
 Reference value :  6.50885e-06
 Reference value :  6.51078e-06
 Reference value :  6.51257e-06
 Reference value :  6.51403e-06
 Reference value :  6.51565e-06
 Reference value :  6.51747e-06
 Reference value :  6.51945e-06
 Reference value :  6.52302e-06
 Reference value :  6.52795e-06
 Reference value :  6.53708e-06
 Reference value :  6.55223e-06
 Reference value :  6.58246e-06
 Reference value :  6.63739e-06
 Reference value :  6.74195e-06
 Reference value :  6.75010e-06
 Reference value :  6.75011e-06
 Reference value :  6.75013e-06
 Reference value :  6.75017e-06
 Reference value :  6.75020e-06
 Reference value :  6.75020e-06
 Reference value :  6.75020e-06
 Reference value :  6.75020e-06
 Reference value :  6.75021e-06
 Reference value :  6.75022e-06
 Reference value :  6.75023e-06
 Reference value :  6.75027e-06
 Reference value :  6.75033e-06
 Reference value :  6.75041e-06
 Reference value :  6.75058e-06
 Reference value :  6.75080e-06
 Reference value :  6.75107e-06
 Reference value :  6.75163e-06
 Reference value :  6.75225e-06
 Reference value :  6.75292e-06
 Reference value :  6.75364e-06
 Reference value :  6.75457e-06
 Reference value :  6.75558e-06
 Reference value :  6.75681e-06
 Reference value :  6.75777e-06
 Reference value :  6.75881e-06
 Reference value :  6.75984e-06
 Reference value :  6.76095e-06
 Reference value :  6.76217e-06
 Reference value :  6.76348e-06
 Reference value :  6.76497e-06
 Reference value :  6.76745e-06
 Reference value :  6.77013e-06
 Reference value :  6.77421e-06
 Reference value :  6.78051e-06
 Reference value :  6.79312e-06
 Reference value :  6.81805e-06
 Reference value :  6.86328e-06
 Reference value :  6.95373e-06
 Reference value :  7.00000e-06
 Reference value :  7.00001e-06
 Reference value :  7.00003e-06
 Reference value :  7.00007e-06
 Reference value :  7.00010e-06
 Reference value :  7.00010e-06
 Reference value :  7.00010e-06
 Reference value :  7.00010e-06
 Reference value :  7.00011e-06
 Reference value :  7.00012e-06
 Reference value :  7.00013e-06
 Reference value :  7.00017e-06
 Reference value :  7.00023e-06
 Reference value :  7.00036e-06
 Reference value :  7.00062e-06
 Reference value :  7.00109e-06
 Reference value :  7.00174e-06
 Reference value :  7.00246e-06
 Reference value :  7.00308e-06
 Reference value :  7.00385e-06
 Reference value :  7.00481e-06
 Reference value :  7.00571e-06
 Reference value :  7.00665e-06
 Reference value :  7.00738e-06
 Reference value :  7.00823e-06
 Reference value :  7.00909e-06
 Reference value :  7.00995e-06
 Reference value :  7.01104e-06
 Reference value :  7.01222e-06
 Reference value :  7.01456e-06
 Reference value :  7.01757e-06
 Reference value :  7.01960e-06
 Reference value :  7.02191e-06
 Reference value :  7.02392e-06
 Reference value :  7.02616e-06
 Reference value :  7.02803e-06
 Reference value :  7.02999e-06
 Reference value :  7.03173e-06
 Reference value :  7.03356e-06
 Reference value :  7.03587e-06
 Reference value :  7.03823e-06
 Reference value :  7.04049e-06
 Reference value :  7.04282e-06
 Reference value :  7.04559e-06
 Reference value :  7.04948e-06
 Reference value :  7.05594e-06
 Reference value :  7.06274e-06
 Reference value :  7.07044e-06
 Reference value :  7.08582e-06
 Reference value :  7.11297e-06
 Reference value :  7.15653e-06
 Reference value :  7.24118e-06
 Reference value :  7.25010e-06
 Reference value :  7.25011e-06
 Reference value :  7.25013e-06
 Reference value :  7.25017e-06
 Reference value :  7.25020e-06
 Reference value :  7.25020e-06
 Reference value :  7.25020e-06
 Reference value :  7.25020e-06
 Reference value :  7.25021e-06
 Reference value :  7.25022e-06
 Reference value :  7.25023e-06
 Reference value :  7.25027e-06
 Reference value :  7.25033e-06
 Reference value :  7.25042e-06
 Reference value :  7.25059e-06
 Reference value :  7.25077e-06
 Reference value :  7.25107e-06
 Reference value :  7.25167e-06
 Reference value :  7.25229e-06
 Reference value :  7.25299e-06
 Reference value :  7.25372e-06
 Reference value :  7.25465e-06
 Reference value :  7.25566e-06
 Reference value :  7.25662e-06
 Reference value :  7.25771e-06
 Reference value :  7.25883e-06
 Reference value :  7.25994e-06
 Reference value :  7.26170e-06
 Reference value :  7.26365e-06
 Reference value :  7.26730e-06
 Reference value :  7.27235e-06
 Reference value :  7.28244e-06
 Reference value :  7.30093e-06
 Reference value :  7.33604e-06
 Reference value :  7.40626e-06
 Reference value :  7.50000e-06
 Reference value :  7.50001e-06
 Reference value :  7.50003e-06
 Reference value :  7.50007e-06
 Reference value :  7.50010e-06
 Reference value :  7.50010e-06
 Reference value :  7.50010e-06
 Reference value :  7.50010e-06
 Reference value :  7.50011e-06
 Reference value :  7.50012e-06
 Reference value :  7.50013e-06
 Reference value :  7.50017e-06
 Reference value :  7.50023e-06
 Reference value :  7.50036e-06
 Reference value :  7.50062e-06
 Reference value :  7.50109e-06
 Reference value :  7.50171e-06
 Reference value :  7.50245e-06
 Reference value :  7.50308e-06
 Reference value :  7.50384e-06
 Reference value :  7.50479e-06
 Reference value :  7.50576e-06
 Reference value :  7.50668e-06
 Reference value :  7.50785e-06
 Reference value :  7.50906e-06
 Reference value :  7.51093e-06
 Reference value :  7.51293e-06
 Reference value :  7.51464e-06
 Reference value :  7.51645e-06
 Reference value :  7.51877e-06
 Reference value :  7.52118e-06
 Reference value :  7.52528e-06
 Reference value :  7.53095e-06
 Reference value :  7.54038e-06
 Reference value :  7.55656e-06
 Reference value :  7.58266e-06
 Reference value :  7.63071e-06
 Reference value :  7.71716e-06
 Reference value :  7.75010e-06
 Reference value :  7.75011e-06
 Reference value :  7.75013e-06
 Reference value :  7.75017e-06
 Reference value :  7.75020e-06
 Reference value :  7.75020e-06
 Reference value :  7.75020e-06
 Reference value :  7.75020e-06
 Reference value :  7.75021e-06
 Reference value :  7.75022e-06
 Reference value :  7.75023e-06
 Reference value :  7.75027e-06
 Reference value :  7.75033e-06
 Reference value :  7.75042e-06
 Reference value :  7.75059e-06
 Reference value :  7.75082e-06
 Reference value :  7.75109e-06
 Reference value :  7.75165e-06
 Reference value :  7.75226e-06
 Reference value :  7.75292e-06
 Reference value :  7.75365e-06
 Reference value :  7.75457e-06
 Reference value :  7.75558e-06
 Reference value :  7.75658e-06
 Reference value :  7.75763e-06
 Reference value :  7.75858e-06
 Reference value :  7.75957e-06
 Reference value :  7.76064e-06
 Reference value :  7.76189e-06
 Reference value :  7.76437e-06
 Reference value :  7.76855e-06
 Reference value :  7.77499e-06
 Reference value :  7.78787e-06
 Reference value :  7.81363e-06
 Reference value :  7.86516e-06
 Reference value :  7.96822e-06
 Reference value :  8.00000e-06
 Reference value :  8.00001e-06
 Reference value :  8.00003e-06
 Reference value :  8.00007e-06
 Reference value :  8.00010e-06
 Reference value :  8.00010e-06
 Reference value :  8.00010e-06
 Reference value :  8.00010e-06
 Reference value :  8.00011e-06
 Reference value :  8.00012e-06
 Reference value :  8.00013e-06
 Reference value :  8.00017e-06
 Reference value :  8.00023e-06
 Reference value :  8.00036e-06
 Reference value :  8.00062e-06
 Reference value :  8.00109e-06
 Reference value :  8.00171e-06
 Reference value :  8.00245e-06
 Reference value :  8.00308e-06
 Reference value :  8.00385e-06
 Reference value :  8.00482e-06
 Reference value :  8.00575e-06
 Reference value :  8.00670e-06
 Reference value :  8.00756e-06
 Reference value :  8.00851e-06
 Reference value :  8.00954e-06
 Reference value :  8.01070e-06
 Reference value :  8.01243e-06
 Reference value :  8.01396e-06
 Reference value :  8.01557e-06
 Reference value :  8.01724e-06
 Reference value :  8.01905e-06
 Reference value :  8.02268e-06
 Reference value :  8.02811e-06
 Reference value :  8.03699e-06
 Reference value :  8.05475e-06
 Reference value :  8.09028e-06
 Reference value :  8.16133e-06
 Reference value :  8.25010e-06
 Reference value :  8.25011e-06
 Reference value :  8.25013e-06
 Reference value :  8.25017e-06
 Reference value :  8.25020e-06
 Reference value :  8.25020e-06
 Reference value :  8.25020e-06
 Reference value :  8.25020e-06
 Reference value :  8.25021e-06
 Reference value :  8.25022e-06
 Reference value :  8.25023e-06
 Reference value :  8.25027e-06
 Reference value :  8.25033e-06
 Reference value :  8.25047e-06
 Reference value :  8.25064e-06
 Reference value :  8.25085e-06
 Reference value :  8.25127e-06
 Reference value :  8.25193e-06
 Reference value :  8.25261e-06
 Reference value :  8.25331e-06
 Reference value :  8.25422e-06
 Reference value :  8.25545e-06
 Reference value :  8.25660e-06
 Reference value :  8.25789e-06
 Reference value :  8.25953e-06
 Reference value :  8.26158e-06
 Reference value :  8.26424e-06
 Reference value :  8.26765e-06
 Reference value :  8.27257e-06
 Reference value :  8.28243e-06
 Reference value :  8.29636e-06
 Reference value :  8.32422e-06
 Reference value :  8.37995e-06
 Reference value :  8.48532e-06
 Reference value :  8.50000e-06
 Reference value :  8.50001e-06
 Reference value :  8.50003e-06
 Reference value :  8.50007e-06
 Reference value :  8.50010e-06
 Reference value :  8.50010e-06
 Reference value :  8.50010e-06
 Reference value :  8.50010e-06
 Reference value :  8.50011e-06
 Reference value :  8.50012e-06
 Reference value :  8.50013e-06
 Reference value :  8.50017e-06
 Reference value :  8.50023e-06
 Reference value :  8.50036e-06
 Reference value :  8.50062e-06
 Reference value :  8.50107e-06
 Reference value :  8.50173e-06
 Reference value :  8.50252e-06
 Reference value :  8.50322e-06
 Reference value :  8.50397e-06
 Reference value :  8.50474e-06
 Reference value :  8.50560e-06
 Reference value :  8.50654e-06
 Reference value :  8.50786e-06
 Reference value :  8.50877e-06
 Reference value :  8.50982e-06
 Reference value :  8.51109e-06
 Reference value :  8.51246e-06
 Reference value :  8.51519e-06
 Reference value :  8.51832e-06
 Reference value :  8.52458e-06
 Reference value :  8.53634e-06
 Reference value :  8.53765e-06
 Reference value :  8.54028e-06
 Reference value :  8.54498e-06
 Reference value :  8.55013e-06
 Reference value :  8.55408e-06
 Reference value :  8.55737e-06
 Reference value :  8.56051e-06
 Reference value :  8.56371e-06
 Reference value :  8.56587e-06
 Reference value :  8.56780e-06
 Reference value :  8.56959e-06
 Reference value :  8.57137e-06
 Reference value :  8.57347e-06
 Reference value :  8.57571e-06
 Reference value :  8.57834e-06
 Reference value :  8.58024e-06
 Reference value :  8.58210e-06
 Reference value :  8.58375e-06
 Reference value :  8.58556e-06
 Reference value :  8.58918e-06
 Reference value :  8.59643e-06
 Reference value :  8.60342e-06
 Reference value :  8.61062e-06
 Reference value :  8.62223e-06
 Reference value :  8.63484e-06
 Reference value :  8.65644e-06
 Reference value :  8.68258e-06
 Reference value :  8.70839e-06
 Reference value :  8.74582e-06
 Reference value :  8.75010e-06
 Reference value :  8.75011e-06
 Reference value :  8.75013e-06
 Reference value :  8.75017e-06
 Reference value :  8.75020e-06
 Reference value :  8.75020e-06
 Reference value :  8.75020e-06
 Reference value :  8.75020e-06
 Reference value :  8.75021e-06
 Reference value :  8.75022e-06
 Reference value :  8.75023e-06
 Reference value :  8.75027e-06
 Reference value :  8.75033e-06
 Reference value :  8.75047e-06
 Reference value :  8.75064e-06
 Reference value :  8.75091e-06
 Reference value :  8.75145e-06
 Reference value :  8.75211e-06
 Reference value :  8.75281e-06
 Reference value :  8.75354e-06
 Reference value :  8.75447e-06
 Reference value :  8.75552e-06
 Reference value :  8.75660e-06
 Reference value :  8.75765e-06
 Reference value :  8.75876e-06
 Reference value :  8.76010e-06
 Reference value :  8.76144e-06
 Reference value :  8.76295e-06
 Reference value :  8.76599e-06
 Reference value :  8.77011e-06
 Reference value :  8.77740e-06
 Reference value :  8.78915e-06
 Reference value :  8.80822e-06
 Reference value :  8.84074e-06
 Reference value :  8.90366e-06
 Reference value :  8.96725e-06
 Reference value :  9.00000e-06
 Reference value :  9.00001e-06
 Reference value :  9.00003e-06
 Reference value :  9.00007e-06
 Reference value :  9.00010e-06
 Reference value :  9.00010e-06
 Reference value :  9.00010e-06
 Reference value :  9.00010e-06
 Reference value :  9.00011e-06
 Reference value :  9.00012e-06
 Reference value :  9.00013e-06
 Reference value :  9.00017e-06
 Reference value :  9.00023e-06
 Reference value :  9.00036e-06
 Reference value :  9.00056e-06
 Reference value :  9.00096e-06
 Reference value :  9.00147e-06
 Reference value :  9.00200e-06
 Reference value :  9.00276e-06
 Reference value :  9.00357e-06
 Reference value :  9.00432e-06
 Reference value :  9.00513e-06
 Reference value :  9.00613e-06
 Reference value :  9.00714e-06
 Reference value :  9.00840e-06
 Reference value :  9.00968e-06
 Reference value :  9.01150e-06
 Reference value :  9.01345e-06
 Reference value :  9.01537e-06
 Reference value :  9.01720e-06
 Reference value :  9.01985e-06
 Reference value :  9.02281e-06
 Reference value :  9.02613e-06
 Reference value :  9.02924e-06
 Reference value :  9.03247e-06
 Reference value :  9.03637e-06
 Reference value :  9.04117e-06
 Reference value :  9.04482e-06
 Reference value :  9.04876e-06
 Reference value :  9.05308e-06
 Reference value :  9.05729e-06
 Reference value :  9.06377e-06
 Reference value :  9.07005e-06
 Reference value :  9.07631e-06
 Reference value :  9.08405e-06
 Reference value :  9.09539e-06
 Reference value :  9.11488e-06
 Reference value :  9.14725e-06
 Reference value :  9.20087e-06
 Reference value :  9.25010e-06
 Reference value :  9.25011e-06
 Reference value :  9.25013e-06
 Reference value :  9.25017e-06
 Reference value :  9.25020e-06
 Reference value :  9.25020e-06
 Reference value :  9.25020e-06
 Reference value :  9.25020e-06
 Reference value :  9.25021e-06
 Reference value :  9.25022e-06
 Reference value :  9.25023e-06
 Reference value :  9.25027e-06
 Reference value :  9.25033e-06
 Reference value :  9.25047e-06
 Reference value :  9.25064e-06
 Reference value :  9.25091e-06
 Reference value :  9.25145e-06
 Reference value :  9.25210e-06
 Reference value :  9.25280e-06
 Reference value :  9.25353e-06
 Reference value :  9.25443e-06
 Reference value :  9.25552e-06
 Reference value :  9.25665e-06
 Reference value :  9.25769e-06
 Reference value :  9.25879e-06
 Reference value :  9.25978e-06
 Reference value :  9.26082e-06
 Reference value :  9.26199e-06
 Reference value :  9.26326e-06
 Reference value :  9.26487e-06
 Reference value :  9.26653e-06
 Reference value :  9.26935e-06
 Reference value :  9.27209e-06
 Reference value :  9.27691e-06
 Reference value :  9.28532e-06
 Reference value :  9.29711e-06
 Reference value :  9.31881e-06
 Reference value :  9.35183e-06
 Reference value :  9.40694e-06
 Reference value :  9.49788e-06
 Reference value :  9.50000e-06
 Reference value :  9.50001e-06
 Reference value :  9.50003e-06
 Reference value :  9.50007e-06
 Reference value :  9.50010e-06
 Reference value :  9.50010e-06
 Reference value :  9.50010e-06
 Reference value :  9.50010e-06
 Reference value :  9.50011e-06
 Reference value :  9.50012e-06
 Reference value :  9.50013e-06
 Reference value :  9.50017e-06
 Reference value :  9.50023e-06
 Reference value :  9.50036e-06
 Reference value :  9.50056e-06
 Reference value :  9.50096e-06
 Reference value :  9.50147e-06
 Reference value :  9.50201e-06
 Reference value :  9.50276e-06
 Reference value :  9.50346e-06
 Reference value :  9.50420e-06
 Reference value :  9.50499e-06
 Reference value :  9.50587e-06
 Reference value :  9.50691e-06
 Reference value :  9.50768e-06
 Reference value :  9.50855e-06
 Reference value :  9.50939e-06
 Reference value :  9.51026e-06
 Reference value :  9.51144e-06
 Reference value :  9.51269e-06
 Reference value :  9.51520e-06
 Reference value :  9.51755e-06
 Reference value :  9.51941e-06
 Reference value :  9.52148e-06
 Reference value :  9.52429e-06
 Reference value :  9.52653e-06
 Reference value :  9.52862e-06
 Reference value :  9.53018e-06
 Reference value :  9.53162e-06
 Reference value :  9.53326e-06
 Reference value :  9.53492e-06
 Reference value :  9.53682e-06
 Reference value :  9.53988e-06
 Reference value :  9.54302e-06
 Reference value :  9.54928e-06
 Reference value :  9.55937e-06
 Reference value :  9.57539e-06
 Reference value :  9.60555e-06
 Reference value :  9.65564e-06
 Reference value :  9.71970e-06
 Reference value :  9.75010e-06
 Reference value :  9.75011e-06
 Reference value :  9.75013e-06
 Reference value :  9.75017e-06
 Reference value :  9.75020e-06
 Reference value :  9.75020e-06
 Reference value :  9.75020e-06
 Reference value :  9.75020e-06
 Reference value :  9.75021e-06
 Reference value :  9.75022e-06
 Reference value :  9.75023e-06
 Reference value :  9.75027e-06
 Reference value :  9.75033e-06
 Reference value :  9.75047e-06
 Reference value :  9.75064e-06
 Reference value :  9.75091e-06
 Reference value :  9.75145e-06
 Reference value :  9.75210e-06
 Reference value :  9.75288e-06
 Reference value :  9.75358e-06
 Reference value :  9.75455e-06
 Reference value :  9.75561e-06
 Reference value :  9.75652e-06
 Reference value :  9.75760e-06
 Reference value :  9.75871e-06
 Reference value :  9.75986e-06
 Reference value :  9.76136e-06
 Reference value :  9.76386e-06
 Reference value :  9.76732e-06
 Reference value :  9.77170e-06
 Reference value :  9.77579e-06
 Reference value :  9.78047e-06
 Reference value :  9.78378e-06
 Reference value :  9.78690e-06
 Reference value :  9.78908e-06
 Reference value :  9.79187e-06
 Reference value :  9.79630e-06
 Reference value :  9.80096e-06
 Reference value :  9.80879e-06
 Reference value :  9.82002e-06
 Reference value :  9.83159e-06
 Reference value :  9.84594e-06
 Reference value :  9.87463e-06
 Reference value :  9.91216e-06
 Reference value :  9.97457e-06
 Reference value :  1.00000e-05
 Reference value :  1.00000e-05
 Reference value :  1.00000e-05
 Reference value :  1.00001e-05
 Reference value :  1.00001e-05
 Reference value :  1.00001e-05
 Reference value :  1.00001e-05
 Reference value :  1.00001e-05
 Reference value :  1.00001e-05
 Reference value :  1.00001e-05
 Reference value :  1.00001e-05
 Reference value :  1.00002e-05
 Reference value :  1.00002e-05
 Reference value :  1.00004e-05
 Reference value :  1.00006e-05
 Reference value :  1.00010e-05
 Reference value :  1.00015e-05
 Reference value :  1.00020e-05
 Reference value :  1.00027e-05
 Reference value :  1.00034e-05
 Reference value :  1.00042e-05
 Reference value :  1.00050e-05
 Reference value :  1.00059e-05
 Reference value :  1.00069e-05
 Reference value :  1.00079e-05
 Reference value :  1.00094e-05
 Reference value :  1.00110e-05
 Reference value :  1.00131e-05
 Reference value :  1.00146e-05
 Reference value :  1.00164e-05
 Reference value :  1.00184e-05
 Reference value :  1.00206e-05
 Reference value :  1.00243e-05
 Reference value :  1.00292e-05
 Reference value :  1.00373e-05
 Reference value :  1.00503e-05
 Reference value :  1.00729e-05
 Reference value :  1.01176e-05
 Reference value :  1.01934e-05
 Reference value :  1.02501e-05
 Reference value :  1.02501e-05
 Reference value :  1.02501e-05
 Reference value :  1.02502e-05
 Reference value :  1.02502e-05
 Reference value :  1.02502e-05
 Reference value :  1.02502e-05
 Reference value :  1.02502e-05
 Reference value :  1.02502e-05
 Reference value :  1.02502e-05
 Reference value :  1.02502e-05
 Reference value :  1.02503e-05
 Reference value :  1.02503e-05
 Reference value :  1.02505e-05
 Reference value :  1.02506e-05
 Reference value :  1.02509e-05
 Reference value :  1.02515e-05
 Reference value :  1.02521e-05
 Reference value :  1.02529e-05
 Reference value :  1.02536e-05
 Reference value :  1.02545e-05
 Reference value :  1.02556e-05
 Reference value :  1.02565e-05
 Reference value :  1.02576e-05
 Reference value :  1.02585e-05
 Reference value :  1.02595e-05
 Reference value :  1.02607e-05
 Reference value :  1.02620e-05
 Reference value :  1.02647e-05
 Reference value :  1.02685e-05
 Reference value :  1.02753e-05
 Reference value :  1.02879e-05
 Reference value :  1.03088e-05
 Reference value :  1.03479e-05
 Reference value :  1.04261e-05
 Reference value :  1.05000e-05
 Reference value :  1.05000e-05
 Reference value :  1.05000e-05
 Reference value :  1.05001e-05
 Reference value :  1.05001e-05
 Reference value :  1.05001e-05
 Reference value :  1.05001e-05
 Reference value :  1.05001e-05
 Reference value :  1.05001e-05
 Reference value :  1.05001e-05
 Reference value :  1.05001e-05
 Reference value :  1.05002e-05
 Reference value :  1.05002e-05
 Reference value :  1.05004e-05
 Reference value :  1.05006e-05
 Reference value :  1.05010e-05
 Reference value :  1.05015e-05
 Reference value :  1.05020e-05
 Reference value :  1.05027e-05
 Reference value :  1.05034e-05
 Reference value :  1.05042e-05
 Reference value :  1.05050e-05
 Reference value :  1.05059e-05
 Reference value :  1.05066e-05
 Reference value :  1.05075e-05
 Reference value :  1.05082e-05
 Reference value :  1.05090e-05
 Reference value :  1.05101e-05
 Reference value :  1.05113e-05
 Reference value :  1.05133e-05
 Reference value :  1.05157e-05
 Reference value :  1.05188e-05
 Reference value :  1.05223e-05
 Reference value :  1.05251e-05
 Reference value :  1.05273e-05
 Reference value :  1.05295e-05
 Reference value :  1.05316e-05
 Reference value :  1.05338e-05
 Reference value :  1.05364e-05
 Reference value :  1.05396e-05
 Reference value :  1.05450e-05
 Reference value :  1.05523e-05
 Reference value :  1.05648e-05
 Reference value :  1.05783e-05
 Reference value :  1.05893e-05
 Reference value :  1.05982e-05
 Reference value :  1.06050e-05
 Reference value :  1.06105e-05
 Reference value :  1.06163e-05
 Reference value :  1.06240e-05
 Reference value :  1.06311e-05
 Reference value :  1.06389e-05
 Reference value :  1.06482e-05
 Reference value :  1.06628e-05
 Reference value :  1.06810e-05
 Reference value :  1.07079e-05
 Reference value :  1.07501e-05
 Reference value :  1.07501e-05
 Reference value :  1.07501e-05
 Reference value :  1.07502e-05
 Reference value :  1.07502e-05
 Reference value :  1.07502e-05
 Reference value :  1.07502e-05
 Reference value :  1.07502e-05
 Reference value :  1.07502e-05
 Reference value :  1.07502e-05
 Reference value :  1.07502e-05
 Reference value :  1.07503e-05
 Reference value :  1.07503e-05
 Reference value :  1.07505e-05
 Reference value :  1.07506e-05
 Reference value :  1.07509e-05
 Reference value :  1.07515e-05
 Reference value :  1.07521e-05
 Reference value :  1.07529e-05
 Reference value :  1.07536e-05
 Reference value :  1.07545e-05
 Reference value :  1.07554e-05
 Reference value :  1.07564e-05
 Reference value :  1.07575e-05
 Reference value :  1.07585e-05
 Reference value :  1.07602e-05
 Reference value :  1.07619e-05
 Reference value :  1.07646e-05
 Reference value :  1.07682e-05
 Reference value :  1.07743e-05
 Reference value :  1.07844e-05
 Reference value :  1.08002e-05
 Reference value :  1.08289e-05
 Reference value :  1.08857e-05
 Reference value :  1.09820e-05
 Reference value :  1.10000e-05
 Reference value :  1.10000e-05
 Reference value :  1.10000e-05
 Reference value :  1.10001e-05
 Reference value :  1.10001e-05
 Reference value :  1.10001e-05
 Reference value :  1.10001e-05
 Reference value :  1.10001e-05
 Reference value :  1.10001e-05
 Reference value :  1.10001e-05
 Reference value :  1.10001e-05
 Reference value :  1.10002e-05
 Reference value :  1.10002e-05
 Reference value :  1.10004e-05
 Reference value :  1.10005e-05
 Reference value :  1.10009e-05
 Reference value :  1.10014e-05
 Reference value :  1.10019e-05
 Reference value :  1.10026e-05
 Reference value :  1.10033e-05
 Reference value :  1.10040e-05
 Reference value :  1.10047e-05
 Reference value :  1.10056e-05
 Reference value :  1.10064e-05
 Reference value :  1.10076e-05
 Reference value :  1.10089e-05
 Reference value :  1.10109e-05
 Reference value :  1.10124e-05
 Reference value :  1.10139e-05
 Reference value :  1.10155e-05
 Reference value :  1.10172e-05
 Reference value :  1.10190e-05
 Reference value :  1.10226e-05
 Reference value :  1.10272e-05
 Reference value :  1.10358e-05
 Reference value :  1.10507e-05
 Reference value :  1.10764e-05
 Reference value :  1.11277e-05
 Reference value :  1.12303e-05
 Reference value :  1.12501e-05
 Reference value :  1.12501e-05
 Reference value :  1.12501e-05
 Reference value :  1.12502e-05
 Reference value :  1.12502e-05
 Reference value :  1.12502e-05
 Reference value :  1.12502e-05
 Reference value :  1.12502e-05
 Reference value :  1.12502e-05
 Reference value :  1.12502e-05
 Reference value :  1.12502e-05
 Reference value :  1.12503e-05
 Reference value :  1.12503e-05
 Reference value :  1.12505e-05
 Reference value :  1.12506e-05
 Reference value :  1.12509e-05
 Reference value :  1.12515e-05
 Reference value :  1.12521e-05
 Reference value :  1.12529e-05
 Reference value :  1.12536e-05
 Reference value :  1.12546e-05
 Reference value :  1.12555e-05
 Reference value :  1.12565e-05
 Reference value :  1.12574e-05
 Reference value :  1.12584e-05
 Reference value :  1.12595e-05
 Reference value :  1.12607e-05
 Reference value :  1.12621e-05
 Reference value :  1.12636e-05
 Reference value :  1.12660e-05
 Reference value :  1.12685e-05
 Reference value :  1.12727e-05
 Reference value :  1.12791e-05
 Reference value :  1.12918e-05
 Reference value :  1.13127e-05
 Reference value :  1.13544e-05
 Reference value :  1.14379e-05
 Reference value :  1.15000e-05
 Reference value :  1.15000e-05
 Reference value :  1.15000e-05
 Reference value :  1.15001e-05
 Reference value :  1.15001e-05
 Reference value :  1.15001e-05
 Reference value :  1.15001e-05
 Reference value :  1.15001e-05
 Reference value :  1.15001e-05
 Reference value :  1.15001e-05
 Reference value :  1.15001e-05
 Reference value :  1.15002e-05
 Reference value :  1.15002e-05
 Reference value :  1.15004e-05
 Reference value :  1.15005e-05
 Reference value :  1.15009e-05
 Reference value :  1.15014e-05
 Reference value :  1.15019e-05
 Reference value :  1.15027e-05
 Reference value :  1.15034e-05
 Reference value :  1.15041e-05
 Reference value :  1.15049e-05
 Reference value :  1.15057e-05
 Reference value :  1.15065e-05
 Reference value :  1.15074e-05
 Reference value :  1.15081e-05
 Reference value :  1.15089e-05
 Reference value :  1.15101e-05
 Reference value :  1.15112e-05
 Reference value :  1.15130e-05
 Reference value :  1.15151e-05
 Reference value :  1.15168e-05
 Reference value :  1.15186e-05
 Reference value :  1.15205e-05
 Reference value :  1.15225e-05
 Reference value :  1.15239e-05
 Reference value :  1.15254e-05
 Reference value :  1.15267e-05
 Reference value :  1.15281e-05
 Reference value :  1.15299e-05
 Reference value :  1.15317e-05
 Reference value :  1.15345e-05
 Reference value :  1.15379e-05
 Reference value :  1.15447e-05
 Reference value :  1.15563e-05
 Reference value :  1.15727e-05
 Reference value :  1.15916e-05
 Reference value :  1.16130e-05
 Reference value :  1.16298e-05
 Reference value :  1.16408e-05
 Reference value :  1.16522e-05
 Reference value :  1.16606e-05
 Reference value :  1.16687e-05
 Reference value :  1.16830e-05
 Reference value :  1.16996e-05
 Reference value :  1.17264e-05
 Reference value :  1.17501e-05
 Reference value :  1.17501e-05
 Reference value :  1.17501e-05
 Reference value :  1.17502e-05
 Reference value :  1.17502e-05
 Reference value :  1.17502e-05
 Reference value :  1.17502e-05
 Reference value :  1.17502e-05
 Reference value :  1.17502e-05
 Reference value :  1.17502e-05
 Reference value :  1.17502e-05
 Reference value :  1.17503e-05
 Reference value :  1.17503e-05
 Reference value :  1.17505e-05
 Reference value :  1.17506e-05
 Reference value :  1.17509e-05
 Reference value :  1.17515e-05
 Reference value :  1.17521e-05
 Reference value :  1.17529e-05
 Reference value :  1.17536e-05
 Reference value :  1.17545e-05
 Reference value :  1.17556e-05
 Reference value :  1.17565e-05
 Reference value :  1.17575e-05
 Reference value :  1.17584e-05
 Reference value :  1.17598e-05
 Reference value :  1.17612e-05
 Reference value :  1.17638e-05
 Reference value :  1.17671e-05
 Reference value :  1.17723e-05
 Reference value :  1.17826e-05
 Reference value :  1.17981e-05
 Reference value :  1.18279e-05
 Reference value :  1.18875e-05
 Reference value :  1.20000e-05
 Reference value :  1.20000e-05
 Reference value :  1.20000e-05
 Reference value :  1.20001e-05
 Reference value :  1.20001e-05
 Reference value :  1.20001e-05
 Reference value :  1.20001e-05
 Reference value :  1.20001e-05
 Reference value :  1.20001e-05
 Reference value :  1.20001e-05
 Reference value :  1.20001e-05
 Reference value :  1.20002e-05
 Reference value :  1.20002e-05
 Reference value :  1.20004e-05
 Reference value :  1.20005e-05
 Reference value :  1.20009e-05
 Reference value :  1.20014e-05
 Reference value :  1.20019e-05
 Reference value :  1.20027e-05
 Reference value :  1.20034e-05
 Reference value :  1.20041e-05
 Reference value :  1.20049e-05
 Reference value :  1.20058e-05
 Reference value :  1.20068e-05
 Reference value :  1.20080e-05
 Reference value :  1.20097e-05
 Reference value :  1.20111e-05
 Reference value :  1.20127e-05
 Reference value :  1.20145e-05
 Reference value :  1.20162e-05
 Reference value :  1.20180e-05
 Reference value :  1.20207e-05
 Reference value :  1.20234e-05
 Reference value :  1.20284e-05
 Reference value :  1.20355e-05
 Reference value :  1.20475e-05
 Reference value :  1.20689e-05
 Reference value :  1.21045e-05
 Reference value :  1.21695e-05
 Reference value :  1.22501e-05
 Reference value :  1.22501e-05
 Reference value :  1.22501e-05
 Reference value :  1.22502e-05
 Reference value :  1.22502e-05
 Reference value :  1.22502e-05
 Reference value :  1.22502e-05
 Reference value :  1.22502e-05
 Reference value :  1.22502e-05
 Reference value :  1.22502e-05
 Reference value :  1.22502e-05
 Reference value :  1.22503e-05
 Reference value :  1.22503e-05
 Reference value :  1.22505e-05
 Reference value :  1.22506e-05
 Reference value :  1.22509e-05
 Reference value :  1.22515e-05
 Reference value :  1.22521e-05
 Reference value :  1.22529e-05
 Reference value :  1.22536e-05
 Reference value :  1.22545e-05
 Reference value :  1.22556e-05
 Reference value :  1.22565e-05
 Reference value :  1.22575e-05
 Reference value :  1.22584e-05
 Reference value :  1.22594e-05
 Reference value :  1.22606e-05
 Reference value :  1.22629e-05
 Reference value :  1.22660e-05
 Reference value :  1.22705e-05
 Reference value :  1.22783e-05
 Reference value :  1.22938e-05
 Reference value :  1.23236e-05
 Reference value :  1.23831e-05
 Reference value :  1.25000e-05
 Reference value :  1.25000e-05
 Reference value :  1.25000e-05
 Reference value :  1.25001e-05
 Reference value :  1.25001e-05
 Reference value :  1.25001e-05
 Reference value :  1.25001e-05
 Reference value :  1.25001e-05
 Reference value :  1.25001e-05
 Reference value :  1.25001e-05
 Reference value :  1.25001e-05
 Reference value :  1.25002e-05
 Reference value :  1.25002e-05
 Reference value :  1.25004e-05
 Reference value :  1.25005e-05
 Reference value :  1.25009e-05
 Reference value :  1.25014e-05
 Reference value :  1.25019e-05
 Reference value :  1.25027e-05
 Reference value :  1.25034e-05
 Reference value :  1.25041e-05
 Reference value :  1.25049e-05
 Reference value :  1.25057e-05
 Reference value :  1.25066e-05
 Reference value :  1.25074e-05
 Reference value :  1.25084e-05
 Reference value :  1.25093e-05
 Reference value :  1.25103e-05
 Reference value :  1.25118e-05
 Reference value :  1.25133e-05
 Reference value :  1.25157e-05
 Reference value :  1.25184e-05
 Reference value :  1.25209e-05
 Reference value :  1.25234e-05
 Reference value :  1.25254e-05
 Reference value :  1.25272e-05
 Reference value :  1.25288e-05
 Reference value :  1.25306e-05
 Reference value :  1.25327e-05
 Reference value :  1.25353e-05
 Reference value :  1.25385e-05
 Reference value :  1.25436e-05
 Reference value :  1.25479e-05
 Reference value :  1.25528e-05
 Reference value :  1.25587e-05
 Reference value :  1.25630e-05
 Reference value :  1.25678e-05
 Reference value :  1.25722e-05
 Reference value :  1.25774e-05
 Reference value :  1.25843e-05
 Reference value :  1.25909e-05
 Reference value :  1.25973e-05
 Reference value :  1.26050e-05
 Reference value :  1.26203e-05
 Reference value :  1.26478e-05
 Reference value :  1.26938e-05
 Reference value :  1.27373e-05
 Reference value :  1.27501e-05
 Reference value :  1.27501e-05
 Reference value :  1.27501e-05
 Reference value :  1.27502e-05
 Reference value :  1.27502e-05
 Reference value :  1.27502e-05
 Reference value :  1.27502e-05
 Reference value :  1.27502e-05
 Reference value :  1.27502e-05
 Reference value :  1.27502e-05
 Reference value :  1.27502e-05
 Reference value :  1.27503e-05
 Reference value :  1.27503e-05
 Reference value :  1.27504e-05
 Reference value :  1.27506e-05
 Reference value :  1.27508e-05
 Reference value :  1.27511e-05
 Reference value :  1.27517e-05
 Reference value :  1.27523e-05
 Reference value :  1.27530e-05
 Reference value :  1.27538e-05
 Reference value :  1.27547e-05
 Reference value :  1.27555e-05
 Reference value :  1.27564e-05
 Reference value :  1.27573e-05
 Reference value :  1.27582e-05
 Reference value :  1.27598e-05
 Reference value :  1.27614e-05
 Reference value :  1.27640e-05
 Reference value :  1.27673e-05
 Reference value :  1.27724e-05
 Reference value :  1.27828e-05
 Reference value :  1.28034e-05
 Reference value :  1.28447e-05
 Reference value :  1.29273e-05
 Reference value :  1.30000e-05
 Reference value :  1.30000e-05
 Reference value :  1.30000e-05
 Reference value :  1.30001e-05
 Reference value :  1.30001e-05
 Reference value :  1.30001e-05
 Reference value :  1.30001e-05
 Reference value :  1.30001e-05
 Reference value :  1.30001e-05
 Reference value :  1.30001e-05
 Reference value :  1.30001e-05
 Reference value :  1.30002e-05
 Reference value :  1.30002e-05
 Reference value :  1.30004e-05
 Reference value :  1.30006e-05
 Reference value :  1.30011e-05
 Reference value :  1.30017e-05
 Reference value :  1.30025e-05
 Reference value :  1.30031e-05
 Reference value :  1.30039e-05
 Reference value :  1.30048e-05
 Reference value :  1.30058e-05
 Reference value :  1.30067e-05
 Reference value :  1.30079e-05
 Reference value :  1.30093e-05
 Reference value :  1.30110e-05
 Reference value :  1.30124e-05
 Reference value :  1.30138e-05
 Reference value :  1.30153e-05
 Reference value :  1.30170e-05
 Reference value :  1.30187e-05
 Reference value :  1.30220e-05
 Reference value :  1.30268e-05
 Reference value :  1.30356e-05
 Reference value :  1.30523e-05
 Reference value :  1.30817e-05
 Reference value :  1.31404e-05
 Reference value :  1.32501e-05
 Reference value :  1.32501e-05
 Reference value :  1.32501e-05
 Reference value :  1.32502e-05
 Reference value :  1.32502e-05
 Reference value :  1.32502e-05
 Reference value :  1.32502e-05
 Reference value :  1.32502e-05
 Reference value :  1.32502e-05
 Reference value :  1.32502e-05
 Reference value :  1.32502e-05
 Reference value :  1.32503e-05
 Reference value :  1.32503e-05
 Reference value :  1.32504e-05
 Reference value :  1.32506e-05
 Reference value :  1.32508e-05
 Reference value :  1.32511e-05
 Reference value :  1.32517e-05
 Reference value :  1.32523e-05
 Reference value :  1.32530e-05
 Reference value :  1.32538e-05
 Reference value :  1.32547e-05
 Reference value :  1.32555e-05
 Reference value :  1.32565e-05
 Reference value :  1.32573e-05
 Reference value :  1.32582e-05
 Reference value :  1.32592e-05
 Reference value :  1.32603e-05
 Reference value :  1.32618e-05
 Reference value :  1.32632e-05
 Reference value :  1.32656e-05
 Reference value :  1.32681e-05
 Reference value :  1.32719e-05
 Reference value :  1.32771e-05
 Reference value :  1.32874e-05
 Reference value :  1.33082e-05
 Reference value :  1.33496e-05
 Reference value :  1.34325e-05
 Reference value :  1.35000e-05
 Reference value :  1.35000e-05
 Reference value :  1.35000e-05
 Reference value :  1.35001e-05
 Reference value :  1.35001e-05
 Reference value :  1.35001e-05
 Reference value :  1.35001e-05
 Reference value :  1.35001e-05
 Reference value :  1.35001e-05
 Reference value :  1.35001e-05
 Reference value :  1.35001e-05
 Reference value :  1.35002e-05
 Reference value :  1.35002e-05
 Reference value :  1.35004e-05
 Reference value :  1.35006e-05
 Reference value :  1.35011e-05
 Reference value :  1.35017e-05
 Reference value :  1.35025e-05
 Reference value :  1.35031e-05
 Reference value :  1.35039e-05
 Reference value :  1.35047e-05
 Reference value :  1.35056e-05
 Reference value :  1.35064e-05
 Reference value :  1.35072e-05
 Reference value :  1.35079e-05
 Reference value :  1.35087e-05
 Reference value :  1.35097e-05
 Reference value :  1.35108e-05
 Reference value :  1.35129e-05
 Reference value :  1.35151e-05
 Reference value :  1.35174e-05
 Reference value :  1.35195e-05
 Reference value :  1.35216e-05
 Reference value :  1.35239e-05
 Reference value :  1.35261e-05
 Reference value :  1.35278e-05
 Reference value :  1.35294e-05
 Reference value :  1.35309e-05
 Reference value :  1.35325e-05
 Reference value :  1.35344e-05
 Reference value :  1.35371e-05
 Reference value :  1.35400e-05
 Reference value :  1.35454e-05
 Reference value :  1.35531e-05
 Reference value :  1.35656e-05
 Reference value :  1.35789e-05
 Reference value :  1.35949e-05
 Reference value :  1.36121e-05
 Reference value :  1.36399e-05
 Reference value :  1.36679e-05
 Reference value :  1.36875e-05
 Reference value :  1.37122e-05
 Reference value :  1.37347e-05
 Reference value :  1.37501e-05
 Reference value :  1.37501e-05
 Reference value :  1.37501e-05
 Reference value :  1.37502e-05
 Reference value :  1.37502e-05
 Reference value :  1.37502e-05
 Reference value :  1.37502e-05
 Reference value :  1.37502e-05
 Reference value :  1.37502e-05
 Reference value :  1.37502e-05
 Reference value :  1.37502e-05
 Reference value :  1.37503e-05
 Reference value :  1.37503e-05
 Reference value :  1.37504e-05
 Reference value :  1.37506e-05
 Reference value :  1.37508e-05
 Reference value :  1.37511e-05
 Reference value :  1.37517e-05
 Reference value :  1.37523e-05
 Reference value :  1.37530e-05
 Reference value :  1.37538e-05
 Reference value :  1.37547e-05
 Reference value :  1.37558e-05
 Reference value :  1.37565e-05
 Reference value :  1.37574e-05
 Reference value :  1.37584e-05
 Reference value :  1.37595e-05
 Reference value :  1.37607e-05
 Reference value :  1.37631e-05
 Reference value :  1.37662e-05
 Reference value :  1.37707e-05
 Reference value :  1.37792e-05
 Reference value :  1.37964e-05
 Reference value :  1.38306e-05
 Reference value :  1.38991e-05
 Reference value :  1.40000e-05
 Reference value :  1.40000e-05
 Reference value :  1.40000e-05
 Reference value :  1.40001e-05
 Reference value :  1.40001e-05
 Reference value :  1.40001e-05
 Reference value :  1.40001e-05
 Reference value :  1.40001e-05
 Reference value :  1.40001e-05
 Reference value :  1.40001e-05
 Reference value :  1.40001e-05
 Reference value :  1.40002e-05
 Reference value :  1.40002e-05
 Reference value :  1.40004e-05
 Reference value :  1.40006e-05
 Reference value :  1.40011e-05
 Reference value :  1.40017e-05
 Reference value :  1.40025e-05
 Reference value :  1.40031e-05
 Reference value :  1.40039e-05
 Reference value :  1.40048e-05
 Reference value :  1.40058e-05
 Reference value :  1.40067e-05
 Reference value :  1.40078e-05
 Reference value :  1.40092e-05
 Reference value :  1.40108e-05
 Reference value :  1.40123e-05
 Reference value :  1.40137e-05
 Reference value :  1.40152e-05
 Reference value :  1.40169e-05
 Reference value :  1.40186e-05
 Reference value :  1.40221e-05
 Reference value :  1.40270e-05
 Reference value :  1.40367e-05
 Reference value :  1.40540e-05
 Reference value :  1.40852e-05
 Reference value :  1.41458e-05
 Reference value :  1.42501e-05
 Reference value :  1.42501e-05
 Reference value :  1.42501e-05
 Reference value :  1.42502e-05
 Reference value :  1.42502e-05
 Reference value :  1.42502e-05
 Reference value :  1.42502e-05
 Reference value :  1.42502e-05
 Reference value :  1.42502e-05
 Reference value :  1.42502e-05
 Reference value :  1.42502e-05
 Reference value :  1.42503e-05
 Reference value :  1.42503e-05
 Reference value :  1.42504e-05
 Reference value :  1.42506e-05
 Reference value :  1.42508e-05
 Reference value :  1.42511e-05
 Reference value :  1.42517e-05
 Reference value :  1.42523e-05
 Reference value :  1.42530e-05
 Reference value :  1.42538e-05
 Reference value :  1.42547e-05
 Reference value :  1.42557e-05
 Reference value :  1.42565e-05
 Reference value :  1.42574e-05
 Reference value :  1.42584e-05
 Reference value :  1.42593e-05
 Reference value :  1.42604e-05
 Reference value :  1.42616e-05
 Reference value :  1.42631e-05
 Reference value :  1.42647e-05
 Reference value :  1.42669e-05
 Reference value :  1.42693e-05
 Reference value :  1.42735e-05
 Reference value :  1.42811e-05
 Reference value :  1.42928e-05
 Reference value :  1.43142e-05
 Reference value :  1.43495e-05
 Reference value :  1.44104e-05
 Reference value :  1.45000e-05
 Reference value :  1.45000e-05
 Reference value :  1.45000e-05
 Reference value :  1.45001e-05
 Reference value :  1.45001e-05
 Reference value :  1.45001e-05
 Reference value :  1.45001e-05
 Reference value :  1.45001e-05
 Reference value :  1.45001e-05
 Reference value :  1.45001e-05
 Reference value :  1.45001e-05
 Reference value :  1.45002e-05
 Reference value :  1.45002e-05
 Reference value :  1.45004e-05
 Reference value :  1.45006e-05
 Reference value :  1.45011e-05
 Reference value :  1.45017e-05
 Reference value :  1.45025e-05
 Reference value :  1.45031e-05
 Reference value :  1.45039e-05
 Reference value :  1.45048e-05
 Reference value :  1.45057e-05
 Reference value :  1.45067e-05
 Reference value :  1.45076e-05
 Reference value :  1.45085e-05
 Reference value :  1.45096e-05
 Reference value :  1.45108e-05
 Reference value :  1.45120e-05
 Reference value :  1.45144e-05
 Reference value :  1.45170e-05
 Reference value :  1.45189e-05
[...]
 Reference value :  1.32000e-04
 Reference value :  1.32000e-04
 Reference value :  1.32000e-04
 Reference value :  1.32000e-04
 Reference value :  1.32000e-04
 Reference value :  1.32000e-04
 Reference value :  1.32000e-04
 Reference value :  1.32000e-04
 Reference value :  1.32000e-04
 Reference value :  1.32000e-04
 Reference value :  1.32000e-04
 Reference value :  1.32000e-04
 Reference value :  1.32001e-04
 Reference value :  1.32001e-04
 Reference value :  1.32002e-04
 Reference value :  1.32002e-04
 Reference value :  1.32003e-04
 Reference value :  1.32004e-04
 Reference value :  1.32005e-04
 Reference value :  1.32006e-04
 Reference value :  1.32006e-04
 Reference value :  1.32007e-04
 Reference value :  1.32009e-04
 Reference value :  1.32010e-04
 Reference value :  1.32012e-04
 Reference value :  1.32013e-04
 Reference value :  1.32015e-04
 Reference value :  1.32016e-04
 Reference value :  1.32018e-04
 Reference value :  1.32022e-04
 Reference value :  1.32028e-04
 Reference value :  1.32041e-04
 Reference value :  1.32066e-04
 Reference value :  1.32116e-04
 Reference value :  1.32217e-04
 Reference value :  1.32250e-04
 Reference value :  1.32250e-04
 Reference value :  1.32250e-04
 Reference value :  1.32250e-04
 Reference value :  1.32250e-04
 Reference value :  1.32250e-04
 Reference value :  1.32250e-04
 Reference value :  1.32250e-04
 Reference value :  1.32250e-04
 Reference value :  1.32250e-04
 Reference value :  1.32250e-04
 Reference value :  1.32250e-04
 Reference value :  1.32250e-04
 Reference value :  1.32250e-04
 Reference value :  1.32251e-04
 Reference value :  1.32251e-04
 Reference value :  1.32251e-04
 Reference value :  1.32252e-04
 Reference value :  1.32252e-04
 Reference value :  1.32253e-04
 Reference value :  1.32254e-04
 Reference value :  1.32255e-04
 Reference value :  1.32256e-04
 Reference value :  1.32256e-04
 Reference value :  1.32257e-04
 Reference value :  1.32258e-04
 Reference value :  1.32259e-04
 Reference value :  1.32260e-04
 Reference value :  1.32263e-04
 Reference value :  1.32266e-04
 Reference value :  1.32270e-04
 Reference value :  1.32277e-04
 Reference value :  1.32291e-04
 Reference value :  1.32319e-04
 Reference value :  1.32376e-04
 Reference value :  1.32490e-04
 Reference value :  1.32500e-04
 Reference value :  1.32500e-04
 Reference value :  1.32500e-04
 Reference value :  1.32500e-04
 Reference value :  1.32500e-04
 Reference value :  1.32500e-04
 Reference value :  1.32500e-04
 Reference value :  1.32500e-04
 Reference value :  1.32500e-04
 Reference value :  1.32500e-04
 Reference value :  1.32500e-04
 Reference value :  1.32500e-04
 Reference value :  1.32500e-04
 Reference value :  1.32500e-04
 Reference value :  1.32501e-04
 Reference value :  1.32501e-04
 Reference value :  1.32502e-04
 Reference value :  1.32502e-04
 Reference value :  1.32503e-04
 Reference value :  1.32504e-04
 Reference value :  1.32505e-04
 Reference value :  1.32506e-04
 Reference value :  1.32506e-04
 Reference value :  1.32507e-04
 Reference value :  1.32508e-04
 Reference value :  1.32509e-04
 Reference value :  1.32510e-04
 Reference value :  1.32511e-04
 Reference value :  1.32514e-04
 Reference value :  1.32516e-04
 Reference value :  1.32520e-04
 Reference value :  1.32523e-04
 Reference value :  1.32526e-04
 Reference value :  1.32529e-04
 Reference value :  1.32531e-04
 Reference value :  1.32534e-04
 Reference value :  1.32536e-04
 Reference value :  1.32539e-04
 Reference value :  1.32543e-04
 Reference value :  1.32547e-04
 Reference value :  1.32553e-04
 Reference value :  1.32561e-04
 Reference value :  1.32573e-04
 Reference value :  1.32584e-04
 Reference value :  1.32607e-04
 Reference value :  1.32628e-04
 Reference value :  1.32659e-04
 Reference value :  1.32707e-04
 Reference value :  1.32750e-04
 Reference value :  1.32750e-04
 Reference value :  1.32750e-04
 Reference value :  1.32750e-04
 Reference value :  1.32750e-04
 Reference value :  1.32750e-04
 Reference value :  1.32750e-04
 Reference value :  1.32750e-04
 Reference value :  1.32750e-04
 Reference value :  1.32750e-04
 Reference value :  1.32750e-04
 Reference value :  1.32750e-04
 Reference value :  1.32750e-04
 Reference value :  1.32750e-04
 Reference value :  1.32751e-04
 Reference value :  1.32751e-04
 Reference value :  1.32751e-04
 Reference value :  1.32752e-04
 Reference value :  1.32752e-04
 Reference value :  1.32753e-04
 Reference value :  1.32754e-04
 Reference value :  1.32755e-04
 Reference value :  1.32756e-04
 Reference value :  1.32757e-04
 Reference value :  1.32757e-04
 Reference value :  1.32758e-04
 Reference value :  1.32759e-04
 Reference value :  1.32761e-04
 Reference value :  1.32763e-04
 Reference value :  1.32766e-04
 Reference value :  1.32771e-04
 Reference value :  1.32779e-04
 Reference value :  1.32797e-04
 Reference value :  1.32831e-04
 Reference value :  1.32900e-04
 Reference value :  1.33000e-04
 Reference value :  1.33000e-04
 Reference value :  1.33000e-04
 Reference value :  1.33000e-04
 Reference value :  1.33000e-04
 Reference value :  1.33000e-04
 Reference value :  1.33000e-04
 Reference value :  1.33000e-04
 Reference value :  1.33000e-04
 Reference value :  1.33000e-04
 Reference value :  1.33000e-04
 Reference value :  1.33000e-04
 Reference value :  1.33000e-04
 Reference value :  1.33000e-04
 Reference value :  1.33001e-04
 Reference value :  1.33001e-04
 Reference value :  1.33002e-04
 Reference value :  1.33002e-04
 Reference value :  1.33003e-04
 Reference value :  1.33004e-04
 Reference value :  1.33005e-04
 Reference value :  1.33006e-04
 Reference value :  1.33007e-04
 Reference value :  1.33008e-04
 Reference value :  1.33009e-04
 Reference value :  1.33011e-04
 Reference value :  1.33012e-04
 Reference value :  1.33014e-04
 Reference value :  1.33015e-04
 Reference value :  1.33017e-04
 Reference value :  1.33018e-04
 Reference value :  1.33022e-04
 Reference value :  1.33027e-04
 Reference value :  1.33036e-04
 Reference value :  1.33055e-04
 Reference value :  1.33088e-04
 Reference value :  1.33153e-04
 Reference value :  1.33250e-04
 Reference value :  1.33250e-04
 Reference value :  1.33250e-04
 Reference value :  1.33250e-04
 Reference value :  1.33250e-04
 Reference value :  1.33250e-04
 Reference value :  1.33250e-04
 Reference value :  1.33250e-04
 Reference value :  1.33250e-04
 Reference value :  1.33250e-04
 Reference value :  1.33250e-04
 Reference value :  1.33250e-04
 Reference value :  1.33250e-04
 Reference value :  1.33250e-04
 Reference value :  1.33251e-04
 Reference value :  1.33251e-04
 Reference value :  1.33251e-04
 Reference value :  1.33252e-04
 Reference value :  1.33252e-04
 Reference value :  1.33253e-04
 Reference value :  1.33254e-04
 Reference value :  1.33255e-04
 Reference value :  1.33256e-04
 Reference value :  1.33256e-04
 Reference value :  1.33257e-04
 Reference value :  1.33258e-04
 Reference value :  1.33259e-04
 Reference value :  1.33261e-04
 Reference value :  1.33262e-04
 Reference value :  1.33265e-04
 Reference value :  1.33269e-04
 Reference value :  1.33276e-04
 Reference value :  1.33291e-04
 Reference value :  1.33319e-04
 Reference value :  1.33374e-04
 Reference value :  1.33483e-04
 Reference value :  1.33500e-04
 Reference value :  1.33500e-04
 Reference value :  1.33500e-04
 Reference value :  1.33500e-04
 Reference value :  1.33500e-04
 Reference value :  1.33500e-04
 Reference value :  1.33500e-04
 Reference value :  1.33500e-04
 Reference value :  1.33500e-04
 Reference value :  1.33500e-04
 Reference value :  1.33500e-04
 Reference value :  1.33500e-04
 Reference value :  1.33500e-04
 Reference value :  1.33500e-04
 Reference value :  1.33501e-04
 Reference value :  1.33501e-04
 Reference value :  1.33502e-04
 Reference value :  1.33502e-04
 Reference value :  1.33503e-04
 Reference value :  1.33504e-04
 Reference value :  1.33505e-04
 Reference value :  1.33506e-04
 Reference value :  1.33507e-04
 Reference value :  1.33508e-04
 Reference value :  1.33509e-04
 Reference value :  1.33510e-04
 Reference value :  1.33511e-04
 Reference value :  1.33513e-04
 Reference value :  1.33515e-04
 Reference value :  1.33519e-04
 Reference value :  1.33524e-04
 Reference value :  1.33527e-04
 Reference value :  1.33530e-04
 Reference value :  1.33533e-04
 Reference value :  1.33536e-04
 Reference value :  1.33538e-04
 Reference value :  1.33542e-04
 Reference value :  1.33545e-04
 Reference value :  1.33551e-04
 Reference value :  1.33557e-04
 Reference value :  1.33567e-04
 Reference value :  1.33580e-04
 Reference value :  1.33599e-04
 Reference value :  1.33623e-04
 Reference value :  1.33664e-04
 Reference value :  1.33720e-04
 Reference value :  1.33750e-04
 Reference value :  1.33750e-04
 Reference value :  1.33750e-04
 Reference value :  1.33750e-04
 Reference value :  1.33750e-04
 Reference value :  1.33750e-04
 Reference value :  1.33750e-04
 Reference value :  1.33750e-04
 Reference value :  1.33750e-04
 Reference value :  1.33750e-04
 Reference value :  1.33750e-04
 Reference value :  1.33750e-04
 Reference value :  1.33750e-04
 Reference value :  1.33750e-04
 Reference value :  1.33751e-04
 Reference value :  1.33751e-04
 Reference value :  1.33751e-04
 Reference value :  1.33752e-04
 Reference value :  1.33752e-04
 Reference value :  1.33753e-04
 Reference value :  1.33754e-04
 Reference value :  1.33755e-04
 Reference value :  1.33756e-04
 Reference value :  1.33757e-04
 Reference value :  1.33758e-04
 Reference value :  1.33759e-04
 Reference value :  1.33760e-04
 Reference value :  1.33762e-04
 Reference value :  1.33764e-04
 Reference value :  1.33767e-04
 Reference value :  1.33772e-04
 Reference value :  1.33780e-04
 Reference value :  1.33794e-04
 Reference value :  1.33813e-04
 Reference value :  1.33826e-04
 Reference value :  1.33839e-04
 Reference value :  1.33857e-04
 Reference value :  1.33876e-04
 Reference value :  1.33907e-04
 Reference value :  1.33945e-04
 Reference value :  1.34000e-04
 Reference value :  1.34000e-04
 Reference value :  1.34000e-04
 Reference value :  1.34000e-04
 Reference value :  1.34000e-04
 Reference value :  1.34000e-04
 Reference value :  1.34000e-04
 Reference value :  1.34000e-04
 Reference value :  1.34000e-04
 Reference value :  1.34000e-04
 Reference value :  1.34000e-04
 Reference value :  1.34000e-04
 Reference value :  1.34000e-04
 Reference value :  1.34000e-04
 Reference value :  1.34001e-04
 Reference value :  1.34001e-04
 Reference value :  1.34002e-04
 Reference value :  1.34002e-04
 Reference value :  1.34003e-04
 Reference value :  1.34004e-04
 Reference value :  1.34005e-04
 Reference value :  1.34006e-04
 Reference value :  1.34007e-04
 Reference value :  1.34008e-04
 Reference value :  1.34009e-04
 Reference value :  1.34011e-04
 Reference value :  1.34013e-04
 Reference value :  1.34014e-04
 Reference value :  1.34016e-04
 Reference value :  1.34018e-04
 Reference value :  1.34020e-04
 Reference value :  1.34024e-04
 Reference value :  1.34029e-04
 Reference value :  1.34038e-04
 Reference value :  1.34052e-04
 Reference value :  1.34079e-04
 Reference value :  1.34109e-04
 Reference value :  1.34155e-04
 Reference value :  1.34218e-04
 Reference value :  1.34250e-04
 Reference value :  1.34250e-04
 Reference value :  1.34250e-04
 Reference value :  1.34250e-04
 Reference value :  1.34250e-04
 Reference value :  1.34250e-04
 Reference value :  1.34250e-04
 Reference value :  1.34250e-04
 Reference value :  1.34250e-04
 Reference value :  1.34250e-04
 Reference value :  1.34250e-04
 Reference value :  1.34250e-04
 Reference value :  1.34250e-04
 Reference value :  1.34250e-04
 Reference value :  1.34251e-04
 Reference value :  1.34251e-04
 Reference value :  1.34251e-04
 Reference value :  1.34252e-04
 Reference value :  1.34252e-04
 Reference value :  1.34253e-04
 Reference value :  1.34254e-04
 Reference value :  1.34255e-04
 Reference value :  1.34256e-04
 Reference value :  1.34257e-04
 Reference value :  1.34258e-04
 Reference value :  1.34259e-04
 Reference value :  1.34260e-04
 Reference value :  1.34261e-04
 Reference value :  1.34262e-04
 Reference value :  1.34264e-04
 Reference value :  1.34265e-04
 Reference value :  1.34268e-04
 Reference value :  1.34270e-04
 Reference value :  1.34274e-04
 Reference value :  1.34281e-04
 Reference value :  1.34294e-04
 Reference value :  1.34315e-04
 Reference value :  1.34357e-04
 Reference value :  1.34441e-04
 Reference value :  1.34500e-04
 Reference value :  1.34500e-04
 Reference value :  1.34500e-04
 Reference value :  1.34500e-04
 Reference value :  1.34500e-04
 Reference value :  1.34500e-04
 Reference value :  1.34500e-04
 Reference value :  1.34500e-04
 Reference value :  1.34500e-04
 Reference value :  1.34500e-04
 Reference value :  1.34500e-04
 Reference value :  1.34500e-04
 Reference value :  1.34500e-04
 Reference value :  1.34500e-04
 Reference value :  1.34501e-04
 Reference value :  1.34501e-04
 Reference value :  1.34502e-04
 Reference value :  1.34502e-04
 Reference value :  1.34503e-04
 Reference value :  1.34504e-04
 Reference value :  1.34505e-04
 Reference value :  1.34506e-04
 Reference value :  1.34507e-04
 Reference value :  1.34507e-04
 Reference value :  1.34508e-04
 Reference value :  1.34509e-04
 Reference value :  1.34510e-04
 Reference value :  1.34511e-04
 Reference value :  1.34512e-04
 Reference value :  1.34515e-04
 Reference value :  1.34518e-04
 Reference value :  1.34520e-04
 Reference value :  1.34522e-04
 Reference value :  1.34524e-04
 Reference value :  1.34526e-04
 Reference value :  1.34528e-04
 Reference value :  1.34530e-04
 Reference value :  1.34532e-04
 Reference value :  1.34533e-04
 Reference value :  1.34535e-04
 Reference value :  1.34537e-04
 Reference value :  1.34539e-04
 Reference value :  1.34541e-04
 Reference value :  1.34544e-04
 Reference value :  1.34549e-04
 Reference value :  1.34557e-04
 Reference value :  1.34570e-04
 Reference value :  1.34592e-04
 Reference value :  1.34629e-04
 Reference value :  1.34702e-04
 Reference value :  1.34750e-04
 Reference value :  1.34750e-04
 Reference value :  1.34750e-04
 Reference value :  1.34750e-04
 Reference value :  1.34750e-04
 Reference value :  1.34750e-04
 Reference value :  1.34750e-04
 Reference value :  1.34750e-04
 Reference value :  1.34750e-04
 Reference value :  1.34750e-04
 Reference value :  1.34750e-04
 Reference value :  1.34750e-04
 Reference value :  1.34750e-04
 Reference value :  1.34750e-04
 Reference value :  1.34751e-04
 Reference value :  1.34751e-04
 Reference value :  1.34751e-04
 Reference value :  1.34752e-04
 Reference value :  1.34752e-04
 Reference value :  1.34753e-04
 Reference value :  1.34754e-04
 Reference value :  1.34755e-04
 Reference value :  1.34756e-04
 Reference value :  1.34757e-04
 Reference value :  1.34758e-04
 Reference value :  1.34759e-04
 Reference value :  1.34760e-04
 Reference value :  1.34762e-04
 Reference value :  1.34764e-04
 Reference value :  1.34767e-04
 Reference value :  1.34772e-04
 Reference value :  1.34782e-04
 Reference value :  1.34801e-04
 Reference value :  1.34836e-04
 Reference value :  1.34906e-04
 Reference value :  1.35000e-04
 Reference value :  1.35000e-04
 Reference value :  1.35000e-04
 Reference value :  1.35000e-04
 Reference value :  1.35000e-04
 Reference value :  1.35000e-04
 Reference value :  1.35000e-04
 Reference value :  1.35000e-04
 Reference value :  1.35000e-04
 Reference value :  1.35000e-04
 Reference value :  1.35000e-04
 Reference value :  1.35000e-04
 Reference value :  1.35000e-04
 Reference value :  1.35000e-04
 Reference value :  1.35001e-04
 Reference value :  1.35001e-04
 Reference value :  1.35002e-04
 Reference value :  1.35002e-04
 Reference value :  1.35003e-04
 Reference value :  1.35004e-04
 Reference value :  1.35005e-04
 Reference value :  1.35006e-04
 Reference value :  1.35007e-04
 Reference value :  1.35008e-04
 Reference value :  1.35009e-04
 Reference value :  1.35011e-04
 Reference value :  1.35013e-04
 Reference value :  1.35015e-04
 Reference value :  1.35016e-04
 Reference value :  1.35019e-04
 Reference value :  1.35021e-04
 Reference value :  1.35025e-04
 Reference value :  1.35031e-04
 Reference value :  1.35040e-04
 Reference value :  1.35056e-04
 Reference value :  1.35082e-04
 Reference value :  1.35130e-04
 Reference value :  1.35217e-04
 Reference value :  1.35250e-04
 Reference value :  1.35250e-04
 Reference value :  1.35250e-04
 Reference value :  1.35250e-04
 Reference value :  1.35250e-04
 Reference value :  1.35250e-04
 Reference value :  1.35250e-04
 Reference value :  1.35250e-04
 Reference value :  1.35250e-04
 Reference value :  1.35250e-04
 Reference value :  1.35250e-04
 Reference value :  1.35250e-04
 Reference value :  1.35250e-04
 Reference value :  1.35250e-04
 Reference value :  1.35251e-04
 Reference value :  1.35251e-04
 Reference value :  1.35251e-04
 Reference value :  1.35252e-04
 Reference value :  1.35252e-04
 Reference value :  1.35253e-04
 Reference value :  1.35254e-04
 Reference value :  1.35255e-04
 Reference value :  1.35256e-04
 Reference value :  1.35257e-04
 Reference value :  1.35258e-04
 Reference value :  1.35259e-04
 Reference value :  1.35260e-04
 Reference value :  1.35261e-04
 Reference value :  1.35262e-04
 Reference value :  1.35264e-04
 Reference value :  1.35269e-04
 Reference value :  1.35275e-04
 Reference value :  1.35288e-04
 Reference value :  1.35314e-04
 Reference value :  1.35365e-04
 Reference value :  1.35468e-04
 Reference value :  1.35500e-04
 Reference value :  1.35500e-04
 Reference value :  1.35500e-04
 Reference value :  1.35500e-04
 Reference value :  1.35500e-04
 Reference value :  1.35500e-04
 Reference value :  1.35500e-04
 Reference value :  1.35500e-04
 Reference value :  1.35500e-04
 Reference value :  1.35500e-04
 Reference value :  1.35500e-04
 Reference value :  1.35500e-04
 Reference value :  1.35500e-04
 Reference value :  1.35500e-04
 Reference value :  1.35501e-04
 Reference value :  1.35501e-04
 Reference value :  1.35502e-04
 Reference value :  1.35502e-04
 Reference value :  1.35503e-04
 Reference value :  1.35504e-04
 Reference value :  1.35505e-04
 Reference value :  1.35506e-04
 Reference value :  1.35507e-04
 Reference value :  1.35508e-04
 Reference value :  1.35509e-04
 Reference value :  1.35510e-04
 Reference value :  1.35511e-04
 Reference value :  1.35512e-04
 Reference value :  1.35514e-04
 Reference value :  1.35516e-04
 Reference value :  1.35517e-04
 Reference value :  1.35519e-04
 Reference value :  1.35523e-04
 Reference value :  1.35528e-04
 Reference value :  1.35537e-04
 Reference value :  1.35555e-04
 Reference value :  1.35590e-04
 Reference value :  1.35661e-04
 Reference value :  1.35750e-04
 Reference value :  1.35750e-04
 Reference value :  1.35750e-04
 Reference value :  1.35750e-04
 Reference value :  1.35750e-04
 Reference value :  1.35750e-04
 Reference value :  1.35750e-04
 Reference value :  1.35750e-04
 Reference value :  1.35750e-04
 Reference value :  1.35750e-04
 Reference value :  1.35750e-04
 Reference value :  1.35750e-04
 Reference value :  1.35750e-04
 Reference value :  1.35750e-04
 Reference value :  1.35751e-04
 Reference value :  1.35751e-04
 Reference value :  1.35751e-04
 Reference value :  1.35752e-04
 Reference value :  1.35753e-04
 Reference value :  1.35753e-04
 Reference value :  1.35754e-04
 Reference value :  1.35755e-04
 Reference value :  1.35757e-04
 Reference value :  1.35758e-04
 Reference value :  1.35760e-04
 Reference value :  1.35762e-04
 Reference value :  1.35764e-04
 Reference value :  1.35768e-04
 Reference value :  1.35773e-04
 Reference value :  1.35782e-04
 Reference value :  1.35796e-04
 Reference value :  1.35824e-04
 Reference value :  1.35880e-04
 Reference value :  1.35985e-04
 Reference value :  1.36000e-04
No. of Data Rows : 22031
ngspice-44 done
