
Note: Compatibility modes selected: hs a


Circuit: ** sch_path: /home/madra/cace/sar-adc-using-sky130-pdk/runs/run_2025-09-01_18-32-59/parameters/inl/run_4/sar_output.sch

option SCALE: Scale is set to 1e-06 for instance and model parameters
option SCALE: Scale is set to 1e-06 for instance and model parameters
option SCALE: Scale is set to 1e-06 for instance and model parameters
option SCALE: Scale is set to 1e-06 for instance and model parameters
Doing analysis at TEMP = 27.000000 and TNOM = 27.000000

Using KLU as Direct Linear Solver
Operating point simulation skipped by 'uic',
  now using transient initial conditions.
 Reference value :  1.00000e-12
 Reference value :  1.08400e-12
 Reference value :  1.42000e-12
 Reference value :  3.13656e-12
 Reference value :  9.36353e-12
 Reference value :  1.98965e-11
 Reference value :  1.00000e-10
 Reference value :  1.35360e-10
 Reference value :  4.18238e-10
 Reference value :  9.69530e-10
 Reference value :  1.91247e-09
 Reference value :  3.25052e-09
 Reference value :  5.18990e-09
 Reference value :  6.11230e-09
 Reference value :  7.48132e-09
 Reference value :  8.86697e-09
 Reference value :  1.11276e-08
 Reference value :  1.29830e-08
 Reference value :  1.46690e-08
 Reference value :  2.22358e-08
 Reference value :  3.00982e-08
 Reference value :  4.48439e-08
 Reference value :  6.09432e-08
 Reference value :  1.41727e-07
 Reference value :  2.50110e-07
 Reference value :  2.50170e-07
 Reference value :  2.50208e-07
 Reference value :  2.50253e-07
 Reference value :  2.50407e-07
 Reference value :  2.50731e-07
 Reference value :  2.51911e-07
 Reference value :  2.53667e-07
 Reference value :  2.54222e-07
 Reference value :  2.55423e-07
 Reference value :  2.58436e-07
 Reference value :  2.62627e-07
 Reference value :  2.84635e-07
 Reference value :  3.43800e-07
 Reference value :  5.00000e-07
 Reference value :  5.00030e-07
 Reference value :  5.00108e-07
 Reference value :  5.00345e-07
 Reference value :  5.01310e-07
 Reference value :  5.02312e-07
 Reference value :  5.03342e-07
 Reference value :  5.05511e-07
 Reference value :  5.07731e-07
 Reference value :  5.11177e-07
 Reference value :  5.13779e-07
 Reference value :  5.17459e-07
 Reference value :  5.35377e-07
 Reference value :  7.09121e-07
 Reference value :  7.50130e-07
 Reference value :  7.50208e-07
 Reference value :  7.50444e-07
 Reference value :  7.51257e-07
 Reference value :  7.52139e-07
 Reference value :  7.53493e-07
 Reference value :  7.54007e-07
 Reference value :  7.55913e-07
 Reference value :  7.59789e-07
 Reference value :  7.74799e-07
 Reference value :  8.65993e-07
 Reference value :  1.00001e-06
 Reference value :  1.00010e-06
 Reference value :  1.00016e-06
 Reference value :  1.00052e-06
 Reference value :  1.00182e-06
 Reference value :  1.00278e-06
 Reference value :  1.00390e-06
 Reference value :  1.00522e-06
 Reference value :  1.00654e-06
 Reference value :  1.01010e-06
 Reference value :  1.01280e-06
 Reference value :  1.01473e-06
 Reference value :  1.01802e-06
 Reference value :  1.02277e-06
 Reference value :  1.03560e-06
 Reference value :  1.04571e-06
 Reference value :  1.04921e-06
 Reference value :  1.05546e-06
 Reference value :  1.06263e-06
 Reference value :  1.07975e-06
 Reference value :  1.13779e-06
 Reference value :  1.25011e-06
 Reference value :  1.25020e-06
 Reference value :  1.25026e-06
 Reference value :  1.25060e-06
 Reference value :  1.25126e-06
 Reference value :  1.25214e-06
 Reference value :  1.25346e-06
 Reference value :  1.25395e-06
 Reference value :  1.25514e-06
 Reference value :  1.25662e-06
 Reference value :  1.26276e-06
 Reference value :  1.29050e-06
 Reference value :  1.50000e-06
 Reference value :  1.50003e-06
 Reference value :  1.50011e-06
 Reference value :  1.50022e-06
 Reference value :  1.50086e-06
 Reference value :  1.50175e-06
 Reference value :  1.50268e-06
 Reference value :  1.50379e-06
 Reference value :  1.50522e-06
 Reference value :  1.50671e-06
 Reference value :  1.50832e-06
 Reference value :  1.51031e-06
 Reference value :  1.51798e-06
 Reference value :  1.54273e-06
 Reference value :  1.75010e-06
 Reference value :  1.75013e-06
 Reference value :  1.75020e-06
 Reference value :  1.75026e-06
 Reference value :  1.75044e-06
 Reference value :  1.75083e-06
 Reference value :  1.75170e-06
 Reference value :  1.75270e-06
 Reference value :  1.75401e-06
 Reference value :  1.75527e-06
 Reference value :  1.75598e-06
 Reference value :  1.75765e-06
 Reference value :  1.75978e-06
 Reference value :  1.76345e-06
 Reference value :  1.78023e-06
 Reference value :  1.85373e-06
 Reference value :  2.00001e-06
 Reference value :  2.00007e-06
 Reference value :  2.00012e-06
 Reference value :  2.00034e-06
 Reference value :  2.00086e-06
 Reference value :  2.00231e-06
 Reference value :  2.00334e-06
 Reference value :  2.00457e-06
 Reference value :  2.00582e-06
 Reference value :  2.00733e-06
 Reference value :  2.00943e-06
 Reference value :  2.01155e-06
 Reference value :  2.01351e-06
 Reference value :  2.01529e-06
 Reference value :  2.01628e-06
 Reference value :  2.01725e-06
 Reference value :  2.01840e-06
 Reference value :  2.02143e-06
 Reference value :  2.02752e-06
 Reference value :  2.07202e-06
 Reference value :  2.15957e-06
 Reference value :  2.25010e-06
 Reference value :  2.25013e-06
 Reference value :  2.25021e-06
 Reference value :  2.25032e-06
 Reference value :  2.25060e-06
 Reference value :  2.25127e-06
 Reference value :  2.25216e-06
 Reference value :  2.25352e-06
 Reference value :  2.25403e-06
 Reference value :  2.25524e-06
 Reference value :  2.25675e-06
 Reference value :  2.26309e-06
 Reference value :  2.27625e-06
 Reference value :  2.39085e-06
 Reference value :  2.50001e-06
 Reference value :  2.50007e-06
 Reference value :  2.50012e-06
 Reference value :  2.50034e-06
 Reference value :  2.50131e-06
 Reference value :  2.50223e-06
 Reference value :  2.50322e-06
 Reference value :  2.50442e-06
 Reference value :  2.50522e-06
 Reference value :  2.50671e-06
 Reference value :  2.50832e-06
 Reference value :  2.51030e-06
 Reference value :  2.51789e-06
 Reference value :  2.57441e-06
 Reference value :  2.75011e-06
 Reference value :  2.75017e-06
 Reference value :  2.75021e-06
 Reference value :  2.75044e-06
 Reference value :  2.75126e-06
 Reference value :  2.75214e-06
 Reference value :  2.75350e-06
 Reference value :  2.75401e-06
 Reference value :  2.75527e-06
 Reference value :  2.75598e-06
 Reference value :  2.75764e-06
 Reference value :  2.75977e-06
 Reference value :  2.76342e-06
 Reference value :  2.78016e-06
 Reference value :  2.85355e-06
 Reference value :  3.00001e-06
 Reference value :  3.00007e-06
 Reference value :  3.00011e-06
 Reference value :  3.00022e-06
 Reference value :  3.00086e-06
 Reference value :  3.00182e-06
 Reference value :  3.00278e-06
 Reference value :  3.00334e-06
 Reference value :  3.00457e-06
 Reference value :  3.00582e-06
 Reference value :  3.00733e-06
 Reference value :  3.01047e-06
 Reference value :  3.01155e-06
 Reference value :  3.01351e-06
 Reference value :  3.01529e-06
 Reference value :  3.01725e-06
 Reference value :  3.01958e-06
 Reference value :  3.02747e-06
 Reference value :  3.05825e-06
 Reference value :  3.07077e-06
 Reference value :  3.08162e-06
 Reference value :  3.09037e-06
 Reference value :  3.09485e-06
 Reference value :  3.10281e-06
 Reference value :  3.11536e-06
 Reference value :  3.15365e-06
 Reference value :  3.25010e-06
 Reference value :  3.25017e-06
 Reference value :  3.25022e-06
 Reference value :  3.25045e-06
 Reference value :  3.25127e-06
 Reference value :  3.25216e-06
 Reference value :  3.25352e-06
 Reference value :  3.25463e-06
 Reference value :  3.25600e-06
 Reference value :  3.26020e-06
 Reference value :  3.29466e-06
 Reference value :  3.50000e-06
 Reference value :  3.50010e-06
 Reference value :  3.50016e-06
 Reference value :  3.50052e-06
 Reference value :  3.50131e-06
 Reference value :  3.50231e-06
 Reference value :  3.50278e-06
 Reference value :  3.50333e-06
 Reference value :  3.50455e-06
 Reference value :  3.50638e-06
 Reference value :  3.50715e-06
 Reference value :  3.50887e-06
 Reference value :  3.51093e-06
 Reference value :  3.51801e-06
 Reference value :  3.55268e-06
 Reference value :  3.75010e-06
 Reference value :  3.75017e-06
 Reference value :  3.75022e-06
 Reference value :  3.75045e-06
 Reference value :  3.75084e-06
 Reference value :  3.75171e-06
 Reference value :  3.75273e-06
 Reference value :  3.75402e-06
 Reference value :  3.75527e-06
 Reference value :  3.75689e-06
 Reference value :  3.76274e-06
 Reference value :  3.79251e-06
 Reference value :  4.00000e-06
 Reference value :  4.00007e-06
 Reference value :  4.00012e-06
 Reference value :  4.00034e-06
 Reference value :  4.00086e-06
 Reference value :  4.00182e-06
 Reference value :  4.00278e-06
 Reference value :  4.00332e-06
 Reference value :  4.00449e-06
 Reference value :  4.00586e-06
 Reference value :  4.00748e-06
 Reference value :  4.01007e-06
 Reference value :  4.01288e-06
 Reference value :  4.01490e-06
 Reference value :  4.01712e-06
 Reference value :  4.01941e-06
 Reference value :  4.02116e-06
 Reference value :  4.02628e-06
 Reference value :  4.03284e-06
 Reference value :  4.03911e-06
 Reference value :  4.04561e-06
 Reference value :  4.05467e-06
 Reference value :  4.06646e-06
 Reference value :  4.10182e-06
 Reference value :  4.17335e-06
 Reference value :  4.25010e-06
 Reference value :  4.25013e-06
 Reference value :  4.25020e-06
 Reference value :  4.25022e-06
 Reference value :  4.25039e-06
 Reference value :  4.25099e-06
 Reference value :  4.25245e-06
 Reference value :  4.25380e-06
 Reference value :  4.25506e-06
 Reference value :  4.25667e-06
 Reference value :  4.26184e-06
 Reference value :  4.27429e-06
 Reference value :  4.37819e-06
 Reference value :  4.50003e-06
 Reference value :  4.50011e-06
 Reference value :  4.50022e-06
 Reference value :  4.50093e-06
 Reference value :  4.50196e-06
 Reference value :  4.50293e-06
 Reference value :  4.50405e-06
 Reference value :  4.50560e-06
 Reference value :  4.50743e-06
 Reference value :  4.50928e-06
 Reference value :  4.51137e-06
 Reference value :  4.51876e-06
 Reference value :  4.55970e-06
 Reference value :  4.75010e-06
 Reference value :  4.75017e-06
 Reference value :  4.75026e-06
 Reference value :  4.75054e-06
 Reference value :  4.75147e-06
 Reference value :  4.75245e-06
 Reference value :  4.75382e-06
 Reference value :  4.75503e-06
 Reference value :  4.75643e-06
 Reference value :  4.75904e-06
 Reference value :  4.76405e-06
 Reference value :  4.78089e-06
 Reference value :  4.85104e-06
 Reference value :  5.00003e-06
 Reference value :  5.00011e-06
 Reference value :  5.00022e-06
 Reference value :  5.00093e-06
 Reference value :  5.00245e-06
 Reference value :  5.00350e-06
 Reference value :  5.00459e-06
 Reference value :  5.00583e-06
 Reference value :  5.00816e-06
 Reference value :  5.01065e-06
 Reference value :  5.01293e-06
 Reference value :  5.01455e-06
 Reference value :  5.01652e-06
 Reference value :  5.01993e-06
 Reference value :  5.02932e-06
 Reference value :  5.04595e-06
 Reference value :  5.10548e-06
 Reference value :  5.17835e-06
 Reference value :  5.25011e-06
 Reference value :  5.25020e-06
 Reference value :  5.25025e-06
 Reference value :  5.25039e-06
 Reference value :  5.25097e-06
 Reference value :  5.25192e-06
 Reference value :  5.25378e-06
 Reference value :  5.25432e-06
 Reference value :  5.25552e-06
 Reference value :  5.25713e-06
 Reference value :  5.26411e-06
 Reference value :  5.33975e-06
 Reference value :  5.50001e-06
 Reference value :  5.50010e-06
 Reference value :  5.50016e-06
 Reference value :  5.50059e-06
 Reference value :  5.50196e-06
 Reference value :  5.50293e-06
 Reference value :  5.50405e-06
 Reference value :  5.50560e-06
 Reference value :  5.50743e-06
 Reference value :  5.50928e-06
 Reference value :  5.51137e-06
 Reference value :  5.51874e-06
 Reference value :  5.55925e-06
 Reference value :  5.75010e-06
 Reference value :  5.75017e-06
 Reference value :  5.75022e-06
 Reference value :  5.75032e-06
 Reference value :  5.75074e-06
 Reference value :  5.75147e-06
 Reference value :  5.75245e-06
 Reference value :  5.75382e-06
 Reference value :  5.75503e-06
 Reference value :  5.75643e-06
 Reference value :  5.75904e-06
 Reference value :  5.76405e-06
 Reference value :  5.78091e-06
 Reference value :  5.92107e-06
 Reference value :  6.00003e-06
 Reference value :  6.00011e-06
 Reference value :  6.00022e-06
 Reference value :  6.00059e-06
 Reference value :  6.00145e-06
 Reference value :  6.00245e-06
 Reference value :  6.00350e-06
 Reference value :  6.00459e-06
 Reference value :  6.00583e-06
 Reference value :  6.00816e-06
 Reference value :  6.01066e-06
 Reference value :  6.01293e-06
 Reference value :  6.01456e-06
 Reference value :  6.01553e-06
 Reference value :  6.01870e-06
 Reference value :  6.02184e-06
 Reference value :  6.02938e-06
 Reference value :  6.04332e-06
 Reference value :  6.09303e-06
 Reference value :  6.25010e-06
 Reference value :  6.25013e-06
 Reference value :  6.25020e-06
 Reference value :  6.25022e-06
 Reference value :  6.25032e-06
 Reference value :  6.25054e-06
 Reference value :  6.25097e-06
 Reference value :  6.25193e-06
 Reference value :  6.25308e-06
 Reference value :  6.25378e-06
 Reference value :  6.25432e-06
 Reference value :  6.25552e-06
 Reference value :  6.25630e-06
 Reference value :  6.25876e-06
 Reference value :  6.26971e-06
 Reference value :  6.41859e-06
 Reference value :  6.50003e-06
 Reference value :  6.50011e-06
 Reference value :  6.50022e-06
 Reference value :  6.50093e-06
 Reference value :  6.50196e-06
 Reference value :  6.50243e-06
 Reference value :  6.50347e-06
 Reference value :  6.50471e-06
 Reference value :  6.50560e-06
 Reference value :  6.50648e-06
 Reference value :  6.50836e-06
 Reference value :  6.51026e-06
 Reference value :  6.51261e-06
 Reference value :  6.52549e-06
 Reference value :  6.60154e-06
 Reference value :  6.75011e-06
 Reference value :  6.75020e-06
 Reference value :  6.75026e-06
 Reference value :  6.75054e-06
 Reference value :  6.75147e-06
 Reference value :  6.75245e-06
 Reference value :  6.75382e-06
 Reference value :  6.75503e-06
 Reference value :  6.75643e-06
 Reference value :  6.75904e-06
 Reference value :  6.76191e-06
 Reference value :  6.78091e-06
 Reference value :  6.85133e-06
 Reference value :  7.00001e-06
 Reference value :  7.00010e-06
 Reference value :  7.00016e-06
 Reference value :  7.00059e-06
 Reference value :  7.00145e-06
 Reference value :  7.00245e-06
 Reference value :  7.00350e-06
 Reference value :  7.00459e-06
 Reference value :  7.00646e-06
 Reference value :  7.00970e-06
 Reference value :  7.01175e-06
 Reference value :  7.01378e-06
 Reference value :  7.01554e-06
 Reference value :  7.01870e-06
 Reference value :  7.02438e-06
 Reference value :  7.04316e-06
 Reference value :  7.13389e-06
 Reference value :  7.25011e-06
 Reference value :  7.25020e-06
 Reference value :  7.25026e-06
 Reference value :  7.25054e-06
 Reference value :  7.25143e-06
 Reference value :  7.25309e-06
 Reference value :  7.25433e-06
 Reference value :  7.25632e-06
 Reference value :  7.26424e-06
 Reference value :  7.30179e-06
 Reference value :  7.50001e-06
 Reference value :  7.50010e-06
 Reference value :  7.50016e-06
 Reference value :  7.50059e-06
 Reference value :  7.50196e-06
 Reference value :  7.50293e-06
 Reference value :  7.50405e-06
 Reference value :  7.50560e-06
 Reference value :  7.50743e-06
 Reference value :  7.50928e-06
 Reference value :  7.51137e-06
 Reference value :  7.52546e-06
 Reference value :  7.68573e-06
 Reference value :  7.75013e-06
 Reference value :  7.75021e-06
 Reference value :  7.75026e-06
 Reference value :  7.75039e-06
 Reference value :  7.75074e-06
 Reference value :  7.75147e-06
 Reference value :  7.75245e-06
 Reference value :  7.75440e-06
 Reference value :  7.75643e-06
 Reference value :  7.75808e-06
 Reference value :  7.76191e-06
 Reference value :  7.77287e-06
 Reference value :  7.85132e-06
 Reference value :  8.00001e-06
 Reference value :  8.00010e-06
 Reference value :  8.00016e-06
 Reference value :  8.00035e-06
 Reference value :  8.00093e-06
 Reference value :  8.00245e-06
 Reference value :  8.00350e-06
 Reference value :  8.00410e-06
 Reference value :  8.00459e-06
 Reference value :  8.00583e-06
 Reference value :  8.00731e-06
 Reference value :  8.00898e-06
 Reference value :  8.00967e-06
 Reference value :  8.01138e-06
 Reference value :  8.01421e-06
 Reference value :  8.02236e-06
 Reference value :  8.04438e-06
 Reference value :  8.07442e-06
 Reference value :  8.09369e-06
 Reference value :  8.14195e-06
 Reference value :  8.25010e-06
 Reference value :  8.25017e-06
 Reference value :  8.25022e-06
 Reference value :  8.25044e-06
 Reference value :  8.25118e-06
 Reference value :  8.25205e-06
 Reference value :  8.25328e-06
 Reference value :  8.25503e-06
 Reference value :  8.25693e-06
 Reference value :  8.26020e-06
 Reference value :  8.27751e-06
 Reference value :  8.41146e-06
 Reference value :  8.50003e-06
 Reference value :  8.50011e-06
 Reference value :  8.50022e-06
 Reference value :  8.50094e-06
 Reference value :  8.50195e-06
 Reference value :  8.50297e-06
 Reference value :  8.50357e-06
 Reference value :  8.50489e-06
 Reference value :  8.50631e-06
 Reference value :  8.51027e-06
 Reference value :  8.52617e-06
 Reference value :  8.53075e-06
 Reference value :  8.53827e-06
 Reference value :  8.54501e-06
 Reference value :  8.55273e-06
 Reference value :  8.59543e-06
 Reference value :  8.74952e-06
 Reference value :  8.75013e-06
 Reference value :  8.75021e-06
 Reference value :  8.75026e-06
 Reference value :  8.75060e-06
 Reference value :  8.75127e-06
 Reference value :  8.75216e-06
 Reference value :  8.75350e-06
 Reference value :  8.75401e-06
 Reference value :  8.75523e-06
 Reference value :  8.75673e-06
 Reference value :  8.76304e-06
 Reference value :  8.79325e-06
 Reference value :  9.00000e-06
 Reference value :  9.00003e-06
 Reference value :  9.00010e-06
 Reference value :  9.00016e-06
 Reference value :  9.00052e-06
 Reference value :  9.00182e-06
 Reference value :  9.00231e-06
 Reference value :  9.00332e-06
 Reference value :  9.00454e-06
 Reference value :  9.00757e-06
 Reference value :  9.00985e-06
 Reference value :  9.01109e-06
 Reference value :  9.01367e-06
 Reference value :  9.01712e-06
 Reference value :  9.02697e-06
 Reference value :  9.06805e-06
 Reference value :  9.17165e-06
 Reference value :  9.25011e-06
 Reference value :  9.25017e-06
 Reference value :  9.25021e-06
 Reference value :  9.25032e-06
 Reference value :  9.25060e-06
 Reference value :  9.25170e-06
 Reference value :  9.25349e-06
 Reference value :  9.25460e-06
 Reference value :  9.25689e-06
 Reference value :  9.26274e-06
 Reference value :  9.32339e-06
 Reference value :  9.50001e-06
 Reference value :  9.50010e-06
 Reference value :  9.50016e-06
 Reference value :  9.50052e-06
 Reference value :  9.50182e-06
 Reference value :  9.50278e-06
 Reference value :  9.50390e-06
 Reference value :  9.50521e-06
 Reference value :  9.50652e-06
 Reference value :  9.51005e-06
 Reference value :  9.51274e-06
 Reference value :  9.51374e-06
 Reference value :  9.51582e-06
 Reference value :  9.51683e-06
 Reference value :  9.51906e-06
 Reference value :  9.52237e-06
 Reference value :  9.53528e-06
 Reference value :  9.54564e-06
 Reference value :  9.54938e-06
 Reference value :  9.55590e-06
 Reference value :  9.56365e-06
 Reference value :  9.57422e-06
 Reference value :  9.59885e-06
 Reference value :  9.69609e-06
 Reference value :  9.75013e-06
 Reference value :  9.75021e-06
 Reference value :  9.75026e-06
 Reference value :  9.75060e-06
 Reference value :  9.75126e-06
 Reference value :  9.75214e-06
 Reference value :  9.75346e-06
 Reference value :  9.75453e-06
 Reference value :  9.75585e-06
 Reference value :  9.75984e-06
 Reference value :  9.76671e-06
 Reference value :  9.82205e-06
 Reference value :  1.00000e-05
 Reference value :  1.00001e-05
 Reference value :  1.00001e-05
 Reference value :  1.00002e-05
 Reference value :  1.00005e-05
 Reference value :  1.00009e-05
 Reference value :  1.00017e-05
 Reference value :  1.00032e-05
 Reference value :  1.00052e-05
 Reference value :  1.00067e-05
 Reference value :  1.00083e-05
 Reference value :  1.00115e-05
 Reference value :  1.00421e-05
 Reference value :  1.02501e-05
 Reference value :  1.02502e-05
 Reference value :  1.02503e-05
 Reference value :  1.02506e-05
 Reference value :  1.02517e-05
 Reference value :  1.02535e-05
 Reference value :  1.02546e-05
 Reference value :  1.02560e-05
 Reference value :  1.02568e-05
 Reference value :  1.02587e-05
 Reference value :  1.02635e-05
 Reference value :  1.02802e-05
 Reference value :  1.03538e-05
 Reference value :  1.05000e-05
 Reference value :  1.05001e-05
 Reference value :  1.05001e-05
 Reference value :  1.05005e-05
 Reference value :  1.05018e-05
 Reference value :  1.05033e-05
 Reference value :  1.05052e-05
 Reference value :  1.05065e-05
 Reference value :  1.05094e-05
 Reference value :  1.05115e-05
 Reference value :  1.05135e-05
 Reference value :  1.05153e-05
 Reference value :  1.05184e-05
 Reference value :  1.05215e-05
 Reference value :  1.05354e-05
 Reference value :  1.06136e-05
 Reference value :  1.07501e-05
 Reference value :  1.07501e-05
 Reference value :  1.07502e-05
 Reference value :  1.07503e-05
 Reference value :  1.07506e-05
 Reference value :  1.07517e-05
 Reference value :  1.07535e-05
 Reference value :  1.07546e-05
 Reference value :  1.07560e-05
 Reference value :  1.07631e-05
 Reference value :  1.07938e-05
 Reference value :  1.10000e-05
 Reference value :  1.10001e-05
 Reference value :  1.10002e-05
 Reference value :  1.10005e-05
 Reference value :  1.10017e-05
 Reference value :  1.10032e-05
 Reference value :  1.10044e-05
 Reference value :  1.10060e-05
 Reference value :  1.10067e-05
 Reference value :  1.10083e-05
 Reference value :  1.10103e-05
 Reference value :  1.10178e-05
 Reference value :  1.10417e-05
 Reference value :  1.12501e-05
 Reference value :  1.12502e-05
 Reference value :  1.12502e-05
 Reference value :  1.12503e-05
 Reference value :  1.12508e-05
 Reference value :  1.12521e-05
 Reference value :  1.12540e-05
 Reference value :  1.12560e-05
 Reference value :  1.12576e-05
 Reference value :  1.12617e-05
 Reference value :  1.12802e-05
 Reference value :  1.14143e-05
 Reference value :  1.15001e-05
 Reference value :  1.15002e-05
 Reference value :  1.15005e-05
 Reference value :  1.15013e-05
 Reference value :  1.15028e-05
 Reference value :  1.15033e-05
 Reference value :  1.15046e-05
 Reference value :  1.15058e-05
 Reference value :  1.15065e-05
 Reference value :  1.15083e-05
 Reference value :  1.15105e-05
 Reference value :  1.15115e-05
 Reference value :  1.15135e-05
 Reference value :  1.15153e-05
 Reference value :  1.15172e-05
 Reference value :  1.15193e-05
 Reference value :  1.15208e-05
 Reference value :  1.15253e-05
 Reference value :  1.15473e-05
 Reference value :  1.15711e-05
 Reference value :  1.15816e-05
 Reference value :  1.15902e-05
 Reference value :  1.15945e-05
 Reference value :  1.15982e-05
 Reference value :  1.16083e-05
 Reference value :  1.16319e-05
 Reference value :  1.17075e-05
 Reference value :  1.17501e-05
 Reference value :  1.17502e-05
 Reference value :  1.17502e-05
 Reference value :  1.17503e-05
 Reference value :  1.17508e-05
 Reference value :  1.17517e-05
 Reference value :  1.17527e-05
 Reference value :  1.17535e-05
 Reference value :  1.17540e-05
 Reference value :  1.17552e-05
 Reference value :  1.17560e-05
 Reference value :  1.17583e-05
 Reference value :  1.17631e-05
 Reference value :  1.17940e-05
 Reference value :  1.18922e-05
 Reference value :  1.20000e-05
 Reference value :  1.20001e-05
 Reference value :  1.20001e-05
 Reference value :  1.20002e-05
 Reference value :  1.20003e-05
 Reference value :  1.20009e-05
 Reference value :  1.20018e-05
 Reference value :  1.20028e-05
 Reference value :  1.20033e-05
 Reference value :  1.20045e-05
 Reference value :  1.20055e-05
 Reference value :  1.20071e-05
 Reference value :  1.20080e-05
 Reference value :  1.20098e-05
 Reference value :  1.20109e-05
 Reference value :  1.20145e-05
 Reference value :  1.20240e-05
 Reference value :  1.20519e-05
 Reference value :  1.21568e-05
 Reference value :  1.22501e-05
 Reference value :  1.22502e-05
 Reference value :  1.22502e-05
 Reference value :  1.22503e-05
 Reference value :  1.22506e-05
 Reference value :  1.22513e-05
 Reference value :  1.22522e-05
 Reference value :  1.22535e-05
 Reference value :  1.22540e-05
 Reference value :  1.22553e-05
 Reference value :  1.22569e-05
 Reference value :  1.22627e-05
 Reference value :  1.22922e-05
 Reference value :  1.25000e-05
 Reference value :  1.25001e-05
 Reference value :  1.25001e-05
 Reference value :  1.25002e-05
 Reference value :  1.25005e-05
 Reference value :  1.25018e-05
 Reference value :  1.25028e-05
 Reference value :  1.25039e-05
 Reference value :  1.25052e-05
 Reference value :  1.25059e-05
 Reference value :  1.25075e-05
 Reference value :  1.25101e-05
 Reference value :  1.25129e-05
 Reference value :  1.25139e-05
 Reference value :  1.25161e-05
 Reference value :  1.25182e-05
 Reference value :  1.25211e-05
 Reference value :  1.25298e-05
 Reference value :  1.25327e-05
 Reference value :  1.25389e-05
 Reference value :  1.25453e-05
 Reference value :  1.25547e-05
 Reference value :  1.25837e-05
 Reference value :  1.26727e-05
 Reference value :  1.27501e-05
 Reference value :  1.27502e-05
 Reference value :  1.27502e-05
 Reference value :  1.27503e-05
 Reference value :  1.27507e-05
 Reference value :  1.27519e-05
 Reference value :  1.27538e-05
 Reference value :  1.27551e-05
 Reference value :  1.27567e-05
 Reference value :  1.27660e-05
 Reference value :  1.28761e-05
 Reference value :  1.30000e-05
 Reference value :  1.30001e-05
 Reference value :  1.30002e-05
 Reference value :  1.30009e-05
 Reference value :  1.30020e-05
 Reference value :  1.30029e-05
 Reference value :  1.30041e-05
 Reference value :  1.30056e-05
 Reference value :  1.30074e-05
 Reference value :  1.30093e-05
 Reference value :  1.30114e-05
 Reference value :  1.30187e-05
 Reference value :  1.30589e-05
 Reference value :  1.32501e-05
 Reference value :  1.32502e-05
 Reference value :  1.32503e-05
 Reference value :  1.32505e-05
 Reference value :  1.32515e-05
 Reference value :  1.32524e-05
 Reference value :  1.32538e-05
 Reference value :  1.32550e-05
 Reference value :  1.32564e-05
 Reference value :  1.32581e-05
 Reference value :  1.32619e-05
 Reference value :  1.32729e-05
 Reference value :  1.33511e-05
 Reference value :  1.35000e-05
 Reference value :  1.35001e-05
 Reference value :  1.35002e-05
 Reference value :  1.35006e-05
 Reference value :  1.35020e-05
 Reference value :  1.35030e-05
 Reference value :  1.35041e-05
 Reference value :  1.35046e-05
 Reference value :  1.35065e-05
 Reference value :  1.35082e-05
 Reference value :  1.35107e-05
 Reference value :  1.35129e-05
 Reference value :  1.35146e-05
 Reference value :  1.35165e-05
 Reference value :  1.35199e-05
 Reference value :  1.35292e-05
 Reference value :  1.35371e-05
 Reference value :  1.35734e-05
 Reference value :  1.36596e-05
 Reference value :  1.37289e-05
 Reference value :  1.37501e-05
 Reference value :  1.37502e-05
 Reference value :  1.37503e-05
 Reference value :  1.37507e-05
 Reference value :  1.37514e-05
 Reference value :  1.37524e-05
 Reference value :  1.37538e-05
 Reference value :  1.37543e-05
 Reference value :  1.37555e-05
 Reference value :  1.37571e-05
 Reference value :  1.37609e-05
 Reference value :  1.37808e-05
 Reference value :  1.38387e-05
 Reference value :  1.40000e-05
 Reference value :  1.40000e-05
 Reference value :  1.40001e-05
 Reference value :  1.40001e-05
 Reference value :  1.40002e-05
 Reference value :  1.40009e-05
 Reference value :  1.40020e-05
 Reference value :  1.40024e-05
 Reference value :  1.40035e-05
 Reference value :  1.40047e-05
 Reference value :  1.40065e-05
 Reference value :  1.40084e-05
 Reference value :  1.40103e-05
 Reference value :  1.40114e-05
 Reference value :  1.40187e-05
 Reference value :  1.40376e-05
 Reference value :  1.41855e-05
 Reference value :  1.42501e-05
 Reference value :  1.42502e-05
 Reference value :  1.42503e-05
 Reference value :  1.42504e-05
 Reference value :  1.42507e-05
 Reference value :  1.42515e-05
 Reference value :  1.42524e-05
 Reference value :  1.42538e-05
 Reference value :  1.42544e-05
 Reference value :  1.42557e-05
 Reference value :  1.42564e-05
 Reference value :  1.42581e-05
 Reference value :  1.42603e-05
 Reference value :  1.42641e-05
 Reference value :  1.42809e-05
 Reference value :  1.44211e-05
 Reference value :  1.45001e-05
 Reference value :  1.45002e-05
 Reference value :  1.45006e-05
 Reference value :  1.45009e-05
 Reference value :  1.45020e-05
 Reference value :  1.45030e-05
 Reference value :  1.45035e-05
 Reference value :  1.45046e-05
 Reference value :  1.45058e-05
 Reference value :  1.45073e-05
 Reference value :  1.45097e-05
 Reference value :  1.45107e-05
 Reference value :  1.45129e-05
 Reference value :  1.45138e-05
 Reference value :  1.45155e-05
 Reference value :  1.45187e-05
 Reference value :  1.45243e-05
 Reference value :  1.45360e-05
 Reference value :  1.45926e-05
 Reference value :  1.47501e-05
 Reference value :  1.47502e-05
 Reference value :  1.47503e-05
 Reference value :  1.47505e-05
 Reference value :  1.47514e-05
 Reference value :  1.47524e-05
 Reference value :  1.47543e-05
 Reference value :  1.47563e-05
 Reference value :  1.47609e-05
 Reference value :  1.48004e-05
 Reference value :  1.50000e-05
 Reference value :  1.50001e-05
 Reference value :  1.50001e-05
 Reference value :  1.50003e-05
 Reference value :  1.50009e-05
 Reference value :  1.50020e-05
 Reference value :  1.50024e-05
 Reference value :  1.50035e-05
 Reference value :  1.50041e-05
 Reference value :  1.50056e-05
 Reference value :  1.50074e-05
 Reference value :  1.50093e-05
 Reference value :  1.50114e-05
 Reference value :  1.50187e-05
 Reference value :  1.51009e-05
 Reference value :  1.52501e-05
 Reference value :  1.52501e-05
 Reference value :  1.52502e-05
 Reference value :  1.52503e-05
 Reference value :  1.52504e-05
 Reference value :  1.52510e-05
 Reference value :  1.52519e-05
 Reference value :  1.52531e-05
 Reference value :  1.52544e-05
 Reference value :  1.52557e-05
 Reference value :  1.52564e-05
 Reference value :  1.52581e-05
 Reference value :  1.52619e-05
 Reference value :  1.52809e-05
 Reference value :  1.54210e-05
 Reference value :  1.55013e-05
 Reference value :  1.55052e-05
 Reference value :  1.55077e-05
 Reference value :  1.55112e-05
 Reference value :  1.55134e-05
 Reference value :  1.55151e-05
 Reference value :  1.55173e-05
 Reference value :  1.55213e-05
 Reference value :  1.55372e-05
 Reference value :  1.56513e-05
 Reference value :  1.57501e-05
 Reference value :  1.57502e-05
 Reference value :  1.57503e-05
 Reference value :  1.57504e-05
 Reference value :  1.57509e-05
 Reference value :  1.57515e-05
 Reference value :  1.57524e-05
 Reference value :  1.57537e-05
 Reference value :  1.57542e-05
 Reference value :  1.57555e-05
 Reference value :  1.57570e-05
 Reference value :  1.57607e-05
 Reference value :  1.57791e-05
 Reference value :  1.58254e-05
 Reference value :  1.60000e-05
 Reference value :  1.60000e-05
 Reference value :  1.60001e-05
 Reference value :  1.60001e-05
 Reference value :  1.60002e-05
 Reference value :  1.60006e-05
 Reference value :  1.60015e-05
 Reference value :  1.60024e-05
 Reference value :  1.60035e-05
 Reference value :  1.60047e-05
 Reference value :  1.60056e-05
 Reference value :  1.60065e-05
 Reference value :  1.60084e-05
 Reference value :  1.60093e-05
 Reference value :  1.60114e-05
 Reference value :  1.60151e-05
 Reference value :  1.60376e-05
 Reference value :  1.61847e-05
 Reference value :  1.62501e-05
 Reference value :  1.62502e-05
 Reference value :  1.62502e-05
 Reference value :  1.62503e-05
 Reference value :  1.62504e-05
 Reference value :  1.62507e-05
 Reference value :  1.62515e-05
 Reference value :  1.62524e-05
 Reference value :  1.62538e-05
 Reference value :  1.62544e-05
 Reference value :  1.62557e-05
 Reference value :  1.62564e-05
 Reference value :  1.62581e-05
 Reference value :  1.62619e-05
 Reference value :  1.62729e-05
 Reference value :  1.63165e-05
 Reference value :  1.64210e-05
 Reference value :  1.65000e-05
 Reference value :  1.65001e-05
 Reference value :  1.65001e-05
 Reference value :  1.65003e-05
 Reference value :  1.65009e-05
 Reference value :  1.65020e-05
 Reference value :  1.65030e-05
 Reference value :  1.65035e-05
 Reference value :  1.65041e-05
 Reference value :  1.65046e-05
 Reference value :  1.65058e-05
 Reference value :  1.65073e-05
 Reference value :  1.65090e-05
 Reference value :  1.65105e-05
 Reference value :  1.65123e-05
 Reference value :  1.65194e-05
 Reference value :  1.65348e-05
 Reference value :  1.65599e-05
 Reference value :  1.65744e-05
 Reference value :  1.65836e-05
 Reference value :  1.66259e-05
 Reference value :  1.66628e-05
 Reference value :  1.67501e-05
 Reference value :  1.67502e-05
 Reference value :  1.67502e-05
 Reference value :  1.67503e-05
 Reference value :  1.67508e-05
 Reference value :  1.67520e-05
 Reference value :  1.67533e-05
 Reference value :  1.67550e-05
 Reference value :  1.67569e-05
 Reference value :  1.67602e-05
 Reference value :  1.67966e-05
 Reference value :  1.70000e-05
 Reference value :  1.70015e-05
 Reference value :  1.70045e-05
 Reference value :  1.70060e-05
 Reference value :  1.70093e-05
 Reference value :  1.70133e-05
 Reference value :  1.70205e-05
 Reference value :  1.70253e-05
 Reference value :  1.70287e-05
 Reference value :  1.70314e-05
 Reference value :  1.70337e-05
 Reference value :  1.70356e-05
 Reference value :  1.70386e-05
 Reference value :  1.70464e-05
 Reference value :  1.70533e-05
 Reference value :  1.70765e-05
 Reference value :  1.71572e-05
 Reference value :  1.72501e-05
 Reference value :  1.72502e-05
 Reference value :  1.72503e-05
 Reference value :  1.72506e-05
 Reference value :  1.72517e-05
 Reference value :  1.72527e-05
 Reference value :  1.72539e-05
 Reference value :  1.72551e-05
 Reference value :  1.72559e-05
 Reference value :  1.72582e-05
 Reference value :  1.72628e-05
 Reference value :  1.72907e-05
 Reference value :  1.75000e-05
 Reference value :  1.75001e-05
 Reference value :  1.75001e-05
 Reference value :  1.75003e-05
 Reference value :  1.75009e-05
 Reference value :  1.75018e-05
 Reference value :  1.75028e-05
 Reference value :  1.75039e-05
 Reference value :  1.75064e-05
 Reference value :  1.75076e-05
 Reference value :  1.75099e-05
 Reference value :  1.75124e-05
 Reference value :  1.75137e-05
 Reference value :  1.75190e-05
 Reference value :  1.75343e-05
 Reference value :  1.76080e-05
 Reference value :  1.77501e-05
 Reference value :  1.77502e-05
 Reference value :  1.77503e-05
 Reference value :  1.77506e-05
 Reference value :  1.77513e-05
 Reference value :  1.77521e-05
 Reference value :  1.77535e-05
 Reference value :  1.77540e-05
 Reference value :  1.77553e-05
 Reference value :  1.77569e-05
 Reference value :  1.77627e-05
 Reference value :  1.77927e-05
 Reference value :  1.80000e-05
 Reference value :  1.80021e-05
 Reference value :  1.80062e-05
 Reference value :  1.80084e-05
 Reference value :  1.80121e-05
 Reference value :  1.80134e-05
 Reference value :  1.80147e-05
 Reference value :  1.80173e-05
 Reference value :  1.80223e-05
 Reference value :  1.80352e-05
 Reference value :  1.80453e-05
 Reference value :  1.80517e-05
 Reference value :  1.80584e-05
 Reference value :  1.80729e-05
 Reference value :  1.81124e-05
 Reference value :  1.82501e-05
 Reference value :  1.82502e-05
 Reference value :  1.82503e-05
 Reference value :  1.82506e-05
 Reference value :  1.82517e-05
 Reference value :  1.82526e-05
 Reference value :  1.82536e-05
 Reference value :  1.82546e-05
 Reference value :  1.82559e-05
 Reference value :  1.82628e-05
 Reference value :  1.83245e-05
 Reference value :  1.85000e-05
 Reference value :  1.85001e-05
 Reference value :  1.85002e-05
 Reference value :  1.85003e-05
 Reference value :  1.85013e-05
 Reference value :  1.85022e-05
 Reference value :  1.85032e-05
 Reference value :  1.85044e-05
 Reference value :  1.85052e-05
 Reference value :  1.85067e-05
 Reference value :  1.85083e-05
 Reference value :  1.85103e-05
 Reference value :  1.85176e-05
 Reference value :  1.85400e-05
 Reference value :  1.87495e-05
 Reference value :  1.87501e-05
 Reference value :  1.87502e-05
 Reference value :  1.87503e-05
 Reference value :  1.87508e-05
 Reference value :  1.87517e-05
 Reference value :  1.87527e-05
 Reference value :  1.87540e-05
 Reference value :  1.87553e-05
 Reference value :  1.87568e-05
 Reference value :  1.87598e-05
 Reference value :  1.87667e-05
 Reference value :  1.87944e-05
 Reference value :  1.89135e-05
 Reference value :  1.90000e-05
 Reference value :  1.90001e-05
 Reference value :  1.90002e-05
 Reference value :  1.90009e-05
 Reference value :  1.90018e-05
 Reference value :  1.90028e-05
 Reference value :  1.90039e-05
 Reference value :  1.90052e-05
 Reference value :  1.90058e-05
 Reference value :  1.90073e-05
 Reference value :  1.90094e-05
 Reference value :  1.90105e-05
 Reference value :  1.90115e-05
 Reference value :  1.90127e-05
 Reference value :  1.90135e-05
 Reference value :  1.90153e-05
 Reference value :  1.90173e-05
 Reference value :  1.90184e-05
 Reference value :  1.90214e-05
 Reference value :  1.90275e-05
 Reference value :  1.90474e-05
 Reference value :  1.91124e-05
 Reference value :  1.92232e-05
 Reference value :  1.92501e-05
 Reference value :  1.92502e-05
 Reference value :  1.92502e-05
 Reference value :  1.92504e-05
 Reference value :  1.92513e-05
 Reference value :  1.92522e-05
 Reference value :  1.92535e-05
 Reference value :  1.92540e-05
 Reference value :  1.92552e-05
 Reference value :  1.92560e-05
 Reference value :  1.92583e-05
 Reference value :  1.92675e-05
 Reference value :  1.93252e-05
 Reference value :  1.95020e-05
 Reference value :  1.95061e-05
 Reference value :  1.95082e-05
 Reference value :  1.95124e-05
 Reference value :  1.95144e-05
 Reference value :  1.95222e-05
 Reference value :  1.95434e-05
 Reference value :  1.96280e-05
 Reference value :  1.97501e-05
 Reference value :  1.97502e-05
 Reference value :  1.97503e-05
 Reference value :  1.97506e-05
 Reference value :  1.97508e-05
 Reference value :  1.97517e-05
 Reference value :  1.97527e-05
 Reference value :  1.97536e-05
 Reference value :  1.97547e-05
 Reference value :  1.97560e-05
 Reference value :  1.97577e-05
 Reference value :  1.97599e-05
 Reference value :  1.97636e-05
 Reference value :  1.97814e-05
 Reference value :  1.98636e-05
 Reference value :  2.00000e-05
 Reference value :  2.00001e-05
 Reference value :  2.00001e-05
 Reference value :  2.00002e-05
 Reference value :  2.00005e-05
 Reference value :  2.00013e-05
 Reference value :  2.00023e-05
 Reference value :  2.00028e-05
 Reference value :  2.00039e-05
 Reference value :  2.00052e-05
 Reference value :  2.00058e-05
 Reference value :  2.00073e-05
 Reference value :  2.00094e-05
 Reference value :  2.00105e-05
 Reference value :  2.00116e-05
 Reference value :  2.00135e-05
 Reference value :  2.00153e-05
 Reference value :  2.00173e-05
 Reference value :  2.00184e-05
 Reference value :  2.00215e-05
 Reference value :  2.00276e-05
 Reference value :  2.00475e-05
 Reference value :  2.00715e-05
 Reference value :  2.00835e-05
 Reference value :  2.00919e-05
 Reference value :  2.01072e-05
 Reference value :  2.01225e-05
 Reference value :  2.01644e-05
 Reference value :  2.02501e-05
 Reference value :  2.02502e-05
 Reference value :  2.02502e-05
 Reference value :  2.02503e-05
 Reference value :  2.02506e-05
 Reference value :  2.02513e-05
 Reference value :  2.02521e-05
 Reference value :  2.02535e-05
 Reference value :  2.02540e-05
 Reference value :  2.02552e-05
 Reference value :  2.02560e-05
 Reference value :  2.02583e-05
 Reference value :  2.02675e-05
 Reference value :  2.03268e-05
 Reference value :  2.05000e-05
 Reference value :  2.05020e-05
 Reference value :  2.05059e-05
 Reference value :  2.05079e-05
 Reference value :  2.05122e-05
 Reference value :  2.05195e-05
 Reference value :  2.05354e-05
 Reference value :  2.05915e-05
 Reference value :  2.07064e-05
 Reference value :  2.07501e-05
 Reference value :  2.07502e-05
 Reference value :  2.07502e-05
 Reference value :  2.07504e-05
 Reference value :  2.07513e-05
 Reference value :  2.07521e-05
 Reference value :  2.07532e-05
 Reference value :  2.07542e-05
 Reference value :  2.07552e-05
 Reference value :  2.07583e-05
 Reference value :  2.07673e-05
 Reference value :  2.08972e-05
 Reference value :  2.10000e-05
 Reference value :  2.10001e-05
 Reference value :  2.10002e-05
 Reference value :  2.10009e-05
 Reference value :  2.10018e-05
 Reference value :  2.10028e-05
 Reference value :  2.10033e-05
 Reference value :  2.10045e-05
 Reference value :  2.10059e-05
 Reference value :  2.10085e-05
 Reference value :  2.10101e-05
 Reference value :  2.10129e-05
 Reference value :  2.10139e-05
 Reference value :  2.10161e-05
 Reference value :  2.10182e-05
 Reference value :  2.10211e-05
 Reference value :  2.10262e-05
 Reference value :  2.10327e-05
 Reference value :  2.10390e-05
 Reference value :  2.10453e-05
 Reference value :  2.10547e-05
 Reference value :  2.10728e-05
 Reference value :  2.11304e-05
 Reference value :  2.12501e-05
 Reference value :  2.12502e-05
 Reference value :  2.12503e-05
 Reference value :  2.12505e-05
 Reference value :  2.12515e-05
 Reference value :  2.12531e-05
 Reference value :  2.12544e-05
 Reference value :  2.12557e-05
 Reference value :  2.12577e-05
 Reference value :  2.12660e-05
 Reference value :  2.13179e-05
 Reference value :  2.15000e-05
 Reference value :  2.15001e-05
 Reference value :  2.15001e-05
 Reference value :  2.15002e-05
 Reference value :  2.15009e-05
 Reference value :  2.15020e-05
 Reference value :  2.15029e-05
 Reference value :  2.15041e-05
 Reference value :  2.15056e-05
 Reference value :  2.15074e-05
 Reference value :  2.15093e-05
 Reference value :  2.15114e-05
 Reference value :  2.15255e-05
 Reference value :  2.16013e-05
 Reference value :  2.17501e-05
 Reference value :  2.17502e-05
 Reference value :  2.17503e-05
 Reference value :  2.17505e-05
 Reference value :  2.17515e-05
 Reference value :  2.17531e-05
 Reference value :  2.17544e-05
 Reference value :  2.17557e-05
 Reference value :  2.17573e-05
 Reference value :  2.17603e-05
 Reference value :  2.17672e-05
 Reference value :  2.17947e-05
 Reference value :  2.20000e-05
 Reference value :  2.20013e-05
 Reference value :  2.20054e-05
 Reference value :  2.20082e-05
 Reference value :  2.20106e-05
 Reference value :  2.20132e-05
 Reference value :  2.20151e-05
 Reference value :  2.20173e-05
 Reference value :  2.20210e-05
 Reference value :  2.20304e-05
 Reference value :  2.20601e-05
 Reference value :  2.21062e-05
 Reference value :  2.21734e-05
 Reference value :  2.22501e-05
 Reference value :  2.22502e-05
 Reference value :  2.22502e-05
 Reference value :  2.22504e-05
 Reference value :  2.22507e-05
 Reference value :  2.22509e-05
 Reference value :  2.22515e-05
 Reference value :  2.22524e-05
 Reference value :  2.22537e-05
 Reference value :  2.22548e-05
 Reference value :  2.22562e-05
 Reference value :  2.22638e-05
 Reference value :  2.23251e-05
 Reference value :  2.25000e-05
 Reference value :  2.25000e-05
 Reference value :  2.25001e-05
 Reference value :  2.25001e-05
 Reference value :  2.25002e-05
 Reference value :  2.25006e-05
 Reference value :  2.25015e-05
 Reference value :  2.25024e-05
 Reference value :  2.25035e-05
 Reference value :  2.25047e-05
 Reference value :  2.25065e-05
 Reference value :  2.25084e-05
 Reference value :  2.25103e-05
 Reference value :  2.25114e-05
 Reference value :  2.25187e-05
 Reference value :  2.25588e-05
 Reference value :  2.27501e-05
 Reference value :  2.27501e-05
 Reference value :  2.27502e-05
 Reference value :  2.27502e-05
 Reference value :  2.27503e-05
 Reference value :  2.27505e-05
 Reference value :  2.27515e-05
 Reference value :  2.27524e-05
 Reference value :  2.27538e-05
 Reference value :  2.27544e-05
 Reference value :  2.27557e-05
 Reference value :  2.27564e-05
 Reference value :  2.27581e-05
 Reference value :  2.27603e-05
 Reference value :  2.27672e-05
 Reference value :  2.27948e-05
 Reference value :  2.28514e-05
 Reference value :  2.30000e-05
 Reference value :  2.30013e-05
 Reference value :  2.30039e-05
 Reference value :  2.30052e-05
 Reference value :  2.30065e-05
 Reference value :  2.30077e-05
 Reference value :  2.30102e-05
 Reference value :  2.30112e-05
 Reference value :  2.30134e-05
 Reference value :  2.30142e-05
 Reference value :  2.30160e-05
 Reference value :  2.30179e-05
 Reference value :  2.30221e-05
 Reference value :  2.30364e-05
 Reference value :  2.30929e-05
 Reference value :  2.32501e-05
 Reference value :  2.32502e-05
 Reference value :  2.32503e-05
 Reference value :  2.32504e-05
 Reference value :  2.32507e-05
 Reference value :  2.32511e-05
 Reference value :  2.32519e-05
 Reference value :  2.32529e-05
 Reference value :  2.32542e-05
 Reference value :  2.32555e-05
 Reference value :  2.32570e-05
 Reference value :  2.32638e-05
 Reference value :  2.32950e-05
 Reference value :  2.34700e-05
 Reference value :  2.35000e-05
 Reference value :  2.35001e-05
 Reference value :  2.35002e-05
 Reference value :  2.35006e-05
 Reference value :  2.35020e-05
 Reference value :  2.35029e-05
 Reference value :  2.35041e-05
 Reference value :  2.35056e-05
 Reference value :  2.35074e-05
 Reference value :  2.35093e-05
 Reference value :  2.35114e-05
 Reference value :  2.35254e-05
 Reference value :  2.36848e-05
 Reference value :  2.37501e-05
 Reference value :  2.37502e-05
 Reference value :  2.37502e-05
 Reference value :  2.37503e-05
 Reference value :  2.37505e-05
 Reference value :  2.37515e-05
 Reference value :  2.37524e-05
 Reference value :  2.37538e-05
 Reference value :  2.37544e-05
 Reference value :  2.37557e-05
 Reference value :  2.37573e-05
 Reference value :  2.37590e-05
 Reference value :  2.37641e-05
 Reference value :  2.37809e-05
 Reference value :  2.38165e-05
 Reference value :  2.40000e-05
 Reference value :  2.40000e-05
 Reference value :  2.40001e-05
 Reference value :  2.40001e-05
 Reference value :  2.40002e-05
 Reference value :  2.40006e-05
 Reference value :  2.40015e-05
 Reference value :  2.40024e-05
 Reference value :  2.40035e-05
 Reference value :  2.40046e-05
 Reference value :  2.40058e-05
 Reference value :  2.40073e-05
 Reference value :  2.40097e-05
 Reference value :  2.40107e-05
 Reference value :  2.40129e-05
 Reference value :  2.40138e-05
 Reference value :  2.40155e-05
 Reference value :  2.40175e-05
 Reference value :  2.40199e-05
 Reference value :  2.40288e-05
 Reference value :  2.40620e-05
 Reference value :  2.42036e-05
 Reference value :  2.42501e-05
 Reference value :  2.42502e-05
 Reference value :  2.42502e-05
 Reference value :  2.42503e-05
 Reference value :  2.42504e-05
 Reference value :  2.42507e-05
 Reference value :  2.42514e-05
 Reference value :  2.42524e-05
 Reference value :  2.42538e-05
 Reference value :  2.42543e-05
 Reference value :  2.42555e-05
 Reference value :  2.42572e-05
 Reference value :  2.42642e-05
 Reference value :  2.43018e-05
 Reference value :  2.45000e-05
 Reference value :  2.45001e-05
 Reference value :  2.45002e-05
 Reference value :  2.45009e-05
 Reference value :  2.45024e-05
 Reference value :  2.45035e-05
 Reference value :  2.45047e-05
 Reference value :  2.45065e-05
 Reference value :  2.45084e-05
 Reference value :  2.45103e-05
 Reference value :  2.45126e-05
 Reference value :  2.45254e-05
 Reference value :  2.46853e-05
 Reference value :  2.47501e-05
 Reference value :  2.47502e-05
 Reference value :  2.47503e-05
 Reference value :  2.47507e-05
 Reference value :  2.47519e-05
 Reference value :  2.47531e-05
 Reference value :  2.47544e-05
 Reference value :  2.47564e-05
 Reference value :  2.47581e-05
 Reference value :  2.47619e-05
 Reference value :  2.47809e-05
 Reference value :  2.49210e-05
 Reference value :  2.50001e-05
 Reference value :  2.50001e-05
 Reference value :  2.50003e-05
 Reference value :  2.50009e-05
 Reference value :  2.50020e-05
 Reference value :  2.50024e-05
 Reference value :  2.50035e-05
 Reference value :  2.50046e-05
 Reference value :  2.50058e-05
 Reference value :  2.50073e-05
 Reference value :  2.50090e-05
 Reference value :  2.50105e-05
 Reference value :  2.50114e-05
 Reference value :  2.50167e-05
 Reference value :  2.50275e-05
 Reference value :  2.50599e-05
 Reference value :  2.50836e-05
 Reference value :  2.51069e-05
 Reference value :  2.51420e-05
 Reference value :  2.52501e-05
 Reference value :  2.52502e-05
 Reference value :  2.52502e-05
 Reference value :  2.52503e-05
 Reference value :  2.52504e-05
 Reference value :  2.52508e-05
 Reference value :  2.52516e-05
 Reference value :  2.52526e-05
 Reference value :  2.52533e-05
 Reference value :  2.52550e-05
 Reference value :  2.52560e-05
 Reference value :  2.52585e-05
 Reference value :  2.52679e-05
 Reference value :  2.53349e-05
 Reference value :  2.55015e-05
 Reference value :  2.55045e-05
 Reference value :  2.55060e-05
 Reference value :  2.55093e-05
 Reference value :  2.55165e-05
 Reference value :  2.55253e-05
 Reference value :  2.55287e-05
 Reference value :  2.55314e-05
 Reference value :  2.55337e-05
 Reference value :  2.55356e-05
 Reference value :  2.55370e-05
 Reference value :  2.55409e-05
 Reference value :  2.55464e-05
 Reference value :  2.55533e-05
 Reference value :  2.55765e-05
 Reference value :  2.56572e-05
 Reference value :  2.57501e-05
 Reference value :  2.57502e-05
 Reference value :  2.57502e-05
 Reference value :  2.57503e-05
 Reference value :  2.57504e-05
 Reference value :  2.57506e-05
 Reference value :  2.57513e-05
 Reference value :  2.57521e-05
 Reference value :  2.57527e-05
 Reference value :  2.57534e-05
 Reference value :  2.57539e-05
 Reference value :  2.57551e-05
 Reference value :  2.57559e-05
 Reference value :  2.57599e-05
 Reference value :  2.57748e-05
 Reference value :  2.58864e-05
 Reference value :  2.60000e-05
 Reference value :  2.60001e-05
 Reference value :  2.60002e-05
 Reference value :  2.60009e-05
 Reference value :  2.60018e-05
 Reference value :  2.60028e-05
 Reference value :  2.60039e-05
 Reference value :  2.60055e-05
 Reference value :  2.60075e-05
 Reference value :  2.60099e-05
 Reference value :  2.60111e-05
 Reference value :  2.60137e-05
 Reference value :  2.60190e-05
 Reference value :  2.60475e-05
 Reference value :  2.62501e-05
 Reference value :  2.62502e-05
 Reference value :  2.62503e-05
 Reference value :  2.62506e-05
 Reference value :  2.62517e-05
 Reference value :  2.62535e-05
 Reference value :  2.62546e-05
 Reference value :  2.62560e-05
 Reference value :  2.62602e-05
 Reference value :  2.62768e-05
 Reference value :  2.63842e-05
 Reference value :  2.65021e-05
 Reference value :  2.65063e-05
 Reference value :  2.65084e-05
 Reference value :  2.65122e-05
 Reference value :  2.65148e-05
 Reference value :  2.65174e-05
 Reference value :  2.65226e-05
 Reference value :  2.65300e-05
 Reference value :  2.65398e-05
 Reference value :  2.65483e-05
 Reference value :  2.65547e-05
 Reference value :  2.65617e-05
 Reference value :  2.65673e-05
 Reference value :  2.65788e-05
 Reference value :  2.66105e-05
 Reference value :  2.67489e-05
 Reference value :  2.67501e-05
 Reference value :  2.67502e-05
 Reference value :  2.67502e-05
 Reference value :  2.67504e-05
 Reference value :  2.67513e-05
 Reference value :  2.67522e-05
 Reference value :  2.67532e-05
 Reference value :  2.67536e-05
 Reference value :  2.67546e-05
 Reference value :  2.67559e-05
 Reference value :  2.67583e-05
 Reference value :  2.67600e-05
 Reference value :  2.67671e-05
 Reference value :  2.68257e-05
 Reference value :  2.70000e-05
 Reference value :  2.70001e-05
 Reference value :  2.70001e-05
 Reference value :  2.70002e-05
 Reference value :  2.70003e-05
 Reference value :  2.70009e-05
 Reference value :  2.70017e-05
 Reference value :  2.70027e-05
 Reference value :  2.70032e-05
 Reference value :  2.70044e-05
 Reference value :  2.70060e-05
 Reference value :  2.70067e-05
 Reference value :  2.70083e-05
 Reference value :  2.70103e-05
 Reference value :  2.70177e-05
 Reference value :  2.70413e-05
 Reference value :  2.72501e-05
 Reference value :  2.72501e-05
 Reference value :  2.72502e-05
 Reference value :  2.72503e-05
 Reference value :  2.72506e-05
 Reference value :  2.72517e-05
 Reference value :  2.72535e-05
 Reference value :  2.72540e-05
 Reference value :  2.72560e-05
 Reference value :  2.72568e-05
 Reference value :  2.72587e-05
 Reference value :  2.72616e-05
 Reference value :  2.72722e-05
 Reference value :  2.72945e-05
 Reference value :  2.73532e-05
 Reference value :  2.75000e-05
 Reference value :  2.75000e-05
 Reference value :  2.75001e-05
 Reference value :  2.75001e-05
 Reference value :  2.75002e-05
 Reference value :  2.75005e-05
 Reference value :  2.75013e-05
 Reference value :  2.75023e-05
 Reference value :  2.75033e-05
 Reference value :  2.75046e-05
 Reference value :  2.75058e-05
 Reference value :  2.75073e-05
 Reference value :  2.75094e-05
 Reference value :  2.75115e-05
 Reference value :  2.75135e-05
 Reference value :  2.75153e-05
 Reference value :  2.75173e-05
 Reference value :  2.75196e-05
 Reference value :  2.75235e-05
 Reference value :  2.75478e-05
 Reference value :  2.76603e-05
 Reference value :  2.77501e-05
 Reference value :  2.77502e-05
 Reference value :  2.77502e-05
 Reference value :  2.77503e-05
 Reference value :  2.77504e-05
 Reference value :  2.77508e-05
 Reference value :  2.77517e-05
 Reference value :  2.77527e-05
 Reference value :  2.77535e-05
 Reference value :  2.77540e-05
 Reference value :  2.77552e-05
 Reference value :  2.77567e-05
 Reference value :  2.77601e-05
 Reference value :  2.77675e-05
 Reference value :  2.77938e-05
 Reference value :  2.80000e-05
 Reference value :  2.80020e-05
 Reference value :  2.80061e-05
 Reference value :  2.80082e-05
 Reference value :  2.80124e-05
 Reference value :  2.80144e-05
 Reference value :  2.80222e-05
 Reference value :  2.80334e-05
 Reference value :  2.80837e-05
 Reference value :  2.81977e-05
 Reference value :  2.82501e-05
 Reference value :  2.82502e-05
 Reference value :  2.82503e-05
 Reference value :  2.82506e-05
 Reference value :  2.82517e-05
 Reference value :  2.82527e-05
 Reference value :  2.82536e-05
 Reference value :  2.82547e-05
 Reference value :  2.82560e-05
 Reference value :  2.82577e-05
 Reference value :  2.82616e-05
 Reference value :  2.82814e-05
 Reference value :  2.83636e-05
 Reference value :  2.85000e-05
 Reference value :  2.85001e-05
 Reference value :  2.85002e-05
 Reference value :  2.85009e-05
 Reference value :  2.85023e-05
 Reference value :  2.85033e-05
 Reference value :  2.85052e-05
 Reference value :  2.85065e-05
 Reference value :  2.85083e-05
 Reference value :  2.85105e-05
 Reference value :  2.85116e-05
 Reference value :  2.85135e-05
 Reference value :  2.85153e-05
 Reference value :  2.85173e-05
 Reference value :  2.85196e-05
 Reference value :  2.85276e-05
 Reference value :  2.85588e-05
 Reference value :  2.85715e-05
 Reference value :  2.85835e-05
 Reference value :  2.85919e-05
 Reference value :  2.86072e-05
 Reference value :  2.86322e-05
 Reference value :  2.86875e-05
 Reference value :  2.87501e-05
 Reference value :  2.87502e-05
 Reference value :  2.87503e-05
 Reference value :  2.87508e-05
 Reference value :  2.87517e-05
 Reference value :  2.87527e-05
 Reference value :  2.87540e-05
 Reference value :  2.87552e-05
 Reference value :  2.87560e-05
 Reference value :  2.87583e-05
 Reference value :  2.87631e-05
 Reference value :  2.87940e-05
 Reference value :  2.90000e-05
 Reference value :  2.90020e-05
 Reference value :  2.90059e-05
 Reference value :  2.90079e-05
 Reference value :  2.90122e-05
 Reference value :  2.90195e-05
 Reference value :  2.90464e-05
 Reference value :  2.91357e-05
 Reference value :  2.92501e-05
 Reference value :  2.92502e-05
 Reference value :  2.92502e-05
 Reference value :  2.92504e-05
 Reference value :  2.92513e-05
 Reference value :  2.92521e-05
 Reference value :  2.92527e-05
 Reference value :  2.92536e-05
 Reference value :  2.92547e-05
 Reference value :  2.92560e-05
 Reference value :  2.92601e-05
 Reference value :  2.92673e-05
 Reference value :  2.93279e-05
 Reference value :  2.95000e-05
 Reference value :  2.95000e-05
 Reference value :  2.95001e-05
 Reference value :  2.95001e-05
 Reference value :  2.95002e-05
 Reference value :  2.95005e-05
 Reference value :  2.95009e-05
 Reference value :  2.95018e-05
 Reference value :  2.95028e-05
 Reference value :  2.95033e-05
 Reference value :  2.95045e-05
 Reference value :  2.95052e-05
 Reference value :  2.95059e-05
 Reference value :  2.95075e-05
 Reference value :  2.95101e-05
 Reference value :  2.95129e-05
 Reference value :  2.95139e-05
 Reference value :  2.95161e-05
 Reference value :  2.95181e-05
 Reference value :  2.95228e-05
 Reference value :  2.95295e-05
 Reference value :  2.95323e-05
 Reference value :  2.95361e-05
 Reference value :  2.95415e-05
 Reference value :  2.95447e-05
 Reference value :  2.95536e-05
 Reference value :  2.95651e-05
 Reference value :  2.95799e-05
 Reference value :  2.96604e-05
 Reference value :  2.97501e-05
 Reference value :  2.97502e-05
 Reference value :  2.97503e-05
 Reference value :  2.97504e-05
 Reference value :  2.97507e-05
 Reference value :  2.97515e-05
 Reference value :  2.97531e-05
 Reference value :  2.97544e-05
 Reference value :  2.97557e-05
 Reference value :  2.97577e-05
 Reference value :  2.97660e-05
 Reference value :  2.97889e-05
 Reference value :  2.99926e-05
 Reference value :  3.00000e-05
 Reference value :  3.00001e-05
 Reference value :  3.00002e-05
 Reference value :  3.00006e-05
 Reference value :  3.00015e-05
 Reference value :  3.00024e-05
 Reference value :  3.00035e-05
 Reference value :  3.00047e-05
 Reference value :  3.00056e-05
 Reference value :  3.00065e-05
 Reference value :  3.00084e-05
 Reference value :  3.00093e-05
 Reference value :  3.00114e-05
 Reference value :  3.00151e-05
 Reference value :  3.00255e-05
 Reference value :  3.01012e-05
 Reference value :  3.02501e-05
 Reference value :  3.02502e-05
 Reference value :  3.02502e-05
 Reference value :  3.02503e-05
 Reference value :  3.02504e-05
 Reference value :  3.02510e-05
 Reference value :  3.02519e-05
 Reference value :  3.02531e-05
 Reference value :  3.02544e-05
 Reference value :  3.02557e-05
 Reference value :  3.02573e-05
 Reference value :  3.02590e-05
 Reference value :  3.02619e-05
 Reference value :  3.02729e-05
 Reference value :  3.03163e-05
 Reference value :  3.05000e-05
 Reference value :  3.05013e-05
 Reference value :  3.05040e-05
 Reference value :  3.05054e-05
 Reference value :  3.05082e-05
 Reference value :  3.05106e-05
 Reference value :  3.05132e-05
 Reference value :  3.05150e-05
 Reference value :  3.05173e-05
 Reference value :  3.05195e-05
 Reference value :  3.05227e-05
 Reference value :  3.05304e-05
 Reference value :  3.05469e-05
 Reference value :  3.05889e-05
 Reference value :  3.06269e-05
 Reference value :  3.06789e-05
 Reference value :  3.07501e-05
 Reference value :  3.07501e-05
 Reference value :  3.07502e-05
 Reference value :  3.07503e-05
 Reference value :  3.07504e-05
 Reference value :  3.07509e-05
 Reference value :  3.07515e-05
 Reference value :  3.07524e-05
 Reference value :  3.07537e-05
 Reference value :  3.07542e-05
 Reference value :  3.07555e-05
 Reference value :  3.07570e-05
 Reference value :  3.07606e-05
 Reference value :  3.07949e-05
 Reference value :  3.09700e-05
 Reference value :  3.10000e-05
 Reference value :  3.10001e-05
 Reference value :  3.10002e-05
 Reference value :  3.10003e-05
 Reference value :  3.10015e-05
 Reference value :  3.10024e-05
 Reference value :  3.10035e-05
 Reference value :  3.10056e-05
 Reference value :  3.10074e-05
 Reference value :  3.10093e-05
 Reference value :  3.10114e-05
 Reference value :  3.10255e-05
 Reference value :  3.11857e-05
 Reference value :  3.12501e-05
 Reference value :  3.12502e-05
 Reference value :  3.12503e-05
 Reference value :  3.12505e-05
 Reference value :  3.12515e-05
 Reference value :  3.12524e-05
 Reference value :  3.12538e-05
 Reference value :  3.12550e-05
 Reference value :  3.12564e-05
 Reference value :  3.12581e-05
 Reference value :  3.12619e-05
 Reference value :  3.12809e-05
 Reference value :  3.13514e-05
 Reference value :  3.15000e-05
 Reference value :  3.15001e-05
 Reference value :  3.15002e-05
 Reference value :  3.15009e-05
 Reference value :  3.15024e-05
 Reference value :  3.15035e-05
 Reference value :  3.15046e-05
 Reference value :  3.15065e-05
 Reference value :  3.15082e-05
 Reference value :  3.15107e-05
 Reference value :  3.15129e-05
 Reference value :  3.15138e-05
 Reference value :  3.15155e-05
 Reference value :  3.15165e-05
 Reference value :  3.15187e-05
 Reference value :  3.15243e-05
 Reference value :  3.15432e-05
 Reference value :  3.16332e-05
 Reference value :  3.17501e-05
 Reference value :  3.17502e-05
 Reference value :  3.17503e-05
 Reference value :  3.17505e-05
 Reference value :  3.17510e-05
 Reference value :  3.17519e-05
 Reference value :  3.17531e-05
 Reference value :  3.17543e-05
 Reference value :  3.17555e-05
 Reference value :  3.17571e-05
 Reference value :  3.17641e-05
 Reference value :  3.18396e-05
 Reference value :  3.20000e-05
 Reference value :  3.20001e-05
 Reference value :  3.20002e-05
 Reference value :  3.20003e-05
 Reference value :  3.20009e-05
 Reference value :  3.20020e-05
 Reference value :  3.20024e-05
 Reference value :  3.20035e-05
 Reference value :  3.20041e-05
 Reference value :  3.20056e-05
 Reference value :  3.20065e-05
 Reference value :  3.20084e-05
 Reference value :  3.20093e-05
 Reference value :  3.20114e-05
 Reference value :  3.20151e-05
 Reference value :  3.20254e-05
 Reference value :  3.20587e-05
 Reference value :  3.22501e-05
 Reference value :  3.22501e-05
 Reference value :  3.22502e-05
 Reference value :  3.22502e-05
 Reference value :  3.22503e-05
 Reference value :  3.22507e-05
 Reference value :  3.22515e-05
 Reference value :  3.22524e-05
 Reference value :  3.22538e-05
 Reference value :  3.22550e-05
 Reference value :  3.22564e-05
 Reference value :  3.22581e-05
 Reference value :  3.22619e-05
 Reference value :  3.22729e-05
 Reference value :  3.23165e-05
 Reference value :  3.25000e-05
 Reference value :  3.25001e-05
 Reference value :  3.25001e-05
 Reference value :  3.25003e-05
 Reference value :  3.25009e-05
 Reference value :  3.25024e-05
 Reference value :  3.25035e-05
 Reference value :  3.25046e-05
 Reference value :  3.25065e-05
 Reference value :  3.25097e-05
 Reference value :  3.25118e-05
 Reference value :  3.25129e-05
 Reference value :  3.25146e-05
 Reference value :  3.25166e-05
 Reference value :  3.25187e-05
 Reference value :  3.25288e-05
 Reference value :  3.26332e-05
 Reference value :  3.27501e-05
 Reference value :  3.27502e-05
 Reference value :  3.27504e-05
 Reference value :  3.27510e-05
 Reference value :  3.27519e-05
 Reference value :  3.27538e-05
 Reference value :  3.27550e-05
 Reference value :  3.27563e-05
 Reference value :  3.27610e-05
 Reference value :  3.28018e-05
 Reference value :  3.30000e-05
 Reference value :  3.30001e-05
 Reference value :  3.30001e-05
 Reference value :  3.30003e-05
 Reference value :  3.30009e-05
 Reference value :  3.30020e-05
 Reference value :  3.30029e-05
 Reference value :  3.30035e-05
 Reference value :  3.30047e-05
 Reference value :  3.30065e-05
 Reference value :  3.30084e-05
 Reference value :  3.30103e-05
 Reference value :  3.30151e-05
 Reference value :  3.30587e-05
 Reference value :  3.32501e-05
 Reference value :  3.32502e-05
 Reference value :  3.32503e-05
 Reference value :  3.32504e-05
 Reference value :  3.32515e-05
 Reference value :  3.32531e-05
 Reference value :  3.32544e-05
 Reference value :  3.32564e-05
 Reference value :  3.32581e-05
 Reference value :  3.32619e-05
 Reference value :  3.32729e-05
 Reference value :  3.32947e-05
 Reference value :  3.33513e-05
 Reference value :  3.35013e-05
 Reference value :  3.35052e-05
 Reference value :  3.35077e-05
 Reference value :  3.35111e-05
 Reference value :  3.35155e-05
 Reference value :  3.35238e-05
 Reference value :  3.35486e-05
 Reference value :  3.35798e-05
 Reference value :  3.36036e-05
 Reference value :  3.36344e-05
 Reference value :  3.36818e-05
 Reference value :  3.37501e-05
 Reference value :  3.37502e-05
 Reference value :  3.37503e-05
 Reference value :  3.37504e-05
 Reference value :  3.37508e-05
 Reference value :  3.37514e-05
 Reference value :  3.37523e-05
 Reference value :  3.37537e-05
 Reference value :  3.37554e-05
 Reference value :  3.37591e-05
 Reference value :  3.37770e-05
 Reference value :  3.39001e-05
No. of Data Rows : 4778
ngspice-44 done
