
Note: Compatibility modes selected: hs a


Circuit: ** sch_path: /home/ece/cace/sar-adc-using-sky130-pdk/runs/run_2025-09-12_21-30-45/parameters/dnl/run_3/sar_output_dnl.sch

option SCALE: Scale is set to 1e-06 for instance and model parameters
option SCALE: Scale is set to 1e-06 for instance and model parameters
option SCALE: Scale is set to 1e-06 for instance and model parameters
option SCALE: Scale is set to 1e-06 for instance and model parameters
Doing analysis at TEMP = 27.000000 and TNOM = 27.000000

Using KLU as Direct Linear Solver
Operating point simulation skipped by 'uic',
  now using transient initial conditions.
 Reference value :  1.00000e-12
 Reference value :  1.19600e-12
 Reference value :  6.32427e-12
 Reference value :  6.39894e-11
 Reference value :  1.40301e-10
 Reference value :  6.75552e-10
 Reference value :  1.88325e-09
 Reference value :  4.13098e-09
 Reference value :  6.05553e-09
 Reference value :  7.71136e-09
 Reference value :  1.38331e-08
 Reference value :  2.02241e-08
 Reference value :  2.93864e-08
 Reference value :  3.43625e-08
 Reference value :  4.19800e-08
 Reference value :  5.01050e-08
 Reference value :  9.99331e-08
 Reference value :  2.50100e-07
 Reference value :  2.50130e-07
 Reference value :  2.50200e-07
 Reference value :  2.50222e-07
 Reference value :  2.50310e-07
 Reference value :  2.50532e-07
 Reference value :  2.50977e-07
 Reference value :  2.51884e-07
 Reference value :  2.52991e-07
 Reference value :  2.54223e-07
 Reference value :  2.55446e-07
 Reference value :  2.57100e-07
 Reference value :  2.59963e-07
 Reference value :  2.72468e-07
 Reference value :  3.29675e-07
 Reference value :  5.00000e-07
 Reference value :  5.00070e-07
 Reference value :  5.00124e-07
 Reference value :  5.00348e-07
 Reference value :  5.00857e-07
 Reference value :  5.01584e-07
 Reference value :  5.03007e-07
 Reference value :  5.04920e-07
 Reference value :  5.08638e-07
 Reference value :  5.09859e-07
 Reference value :  5.12587e-07
 Reference value :  5.16084e-07
 Reference value :  5.25832e-07
 Reference value :  6.10095e-07
 Reference value :  7.50130e-07
 Reference value :  7.50208e-07
 Reference value :  7.50320e-07
 Reference value :  7.50703e-07
 Reference value :  7.51576e-07
 Reference value :  7.52040e-07
 Reference value :  7.53260e-07
 Reference value :  7.53780e-07
 Reference value :  7.54364e-07
 Reference value :  7.54923e-07
 Reference value :  7.56264e-07
 Reference value :  7.57938e-07
 Reference value :  7.60511e-07
 Reference value :  7.64956e-07
 Reference value :  7.87844e-07
 Reference value :  9.57865e-07
 Reference value :  1.00001e-06
 Reference value :  1.00007e-06
 Reference value :  1.00011e-06
 Reference value :  1.00016e-06
 Reference value :  1.00035e-06
 Reference value :  1.00086e-06
 Reference value :  1.00163e-06
 Reference value :  1.00258e-06
 Reference value :  1.00363e-06
 Reference value :  1.00519e-06
 Reference value :  1.00710e-06
 Reference value :  1.00921e-06
 Reference value :  1.01010e-06
 Reference value :  1.01198e-06
 Reference value :  1.01373e-06
 Reference value :  1.01530e-06
 Reference value :  1.01812e-06
 Reference value :  1.02091e-06
 Reference value :  1.03253e-06
 Reference value :  1.15489e-06
 Reference value :  1.25011e-06
 Reference value :  1.25020e-06
 Reference value :  1.25026e-06
 Reference value :  1.25070e-06
 Reference value :  1.25157e-06
 Reference value :  1.25203e-06
 Reference value :  1.25325e-06
 Reference value :  1.25377e-06
 Reference value :  1.25509e-06
 Reference value :  1.25655e-06
 Reference value :  1.25986e-06
 Reference value :  1.27331e-06
 Reference value :  1.37145e-06
 Reference value :  1.50000e-06
 Reference value :  1.50007e-06
 Reference value :  1.50012e-06
 Reference value :  1.50035e-06
 Reference value :  1.50086e-06
 Reference value :  1.50159e-06
 Reference value :  1.50300e-06
 Reference value :  1.50411e-06
 Reference value :  1.50624e-06
 Reference value :  1.50794e-06
 Reference value :  1.51110e-06
 Reference value :  1.52625e-06
 Reference value :  1.75010e-06
 Reference value :  1.75017e-06
 Reference value :  1.75026e-06
 Reference value :  1.75110e-06
 Reference value :  1.75203e-06
 Reference value :  1.75378e-06
 Reference value :  1.75550e-06
 Reference value :  1.75705e-06
 Reference value :  1.76052e-06
 Reference value :  1.76812e-06
 Reference value :  1.84484e-06
 Reference value :  2.00001e-06
 Reference value :  2.00010e-06
 Reference value :  2.00016e-06
 Reference value :  2.00054e-06
 Reference value :  2.00119e-06
 Reference value :  2.00163e-06
 Reference value :  2.00258e-06
 Reference value :  2.00308e-06
 Reference value :  2.00419e-06
 Reference value :  2.00519e-06
 Reference value :  2.00639e-06
 Reference value :  2.00807e-06
 Reference value :  2.01010e-06
 Reference value :  2.01197e-06
 Reference value :  2.01371e-06
 Reference value :  2.01527e-06
 Reference value :  2.01709e-06
 Reference value :  2.01909e-06
 Reference value :  2.02599e-06
 Reference value :  2.05799e-06
 Reference value :  2.18468e-06
 Reference value :  2.25013e-06
 Reference value :  2.25021e-06
 Reference value :  2.25032e-06
 Reference value :  2.25110e-06
 Reference value :  2.25203e-06
 Reference value :  2.25324e-06
 Reference value :  2.25435e-06
 Reference value :  2.25566e-06
 Reference value :  2.25960e-06
 Reference value :  2.28535e-06
 Reference value :  2.50000e-06
 Reference value :  2.50010e-06
 Reference value :  2.50016e-06
 Reference value :  2.50054e-06
 Reference value :  2.50119e-06
 Reference value :  2.50204e-06
 Reference value :  2.50300e-06
 Reference value :  2.50488e-06
 Reference value :  2.50625e-06
 Reference value :  2.50794e-06
 Reference value :  2.50985e-06
 Reference value :  2.51906e-06
 Reference value :  2.56922e-06
 Reference value :  2.75010e-06
 Reference value :  2.75017e-06
 Reference value :  2.75022e-06
 Reference value :  2.75045e-06
 Reference value :  2.75157e-06
 Reference value :  2.75203e-06
 Reference value :  2.75325e-06
 Reference value :  2.75377e-06
 Reference value :  2.75491e-06
 Reference value :  2.75623e-06
 Reference value :  2.75890e-06
 Reference value :  2.76803e-06
 Reference value :  2.84087e-06
 Reference value :  3.00001e-06
 Reference value :  3.00010e-06
 Reference value :  3.00016e-06
 Reference value :  3.00054e-06
 Reference value :  3.00086e-06
 Reference value :  3.00163e-06
 Reference value :  3.00258e-06
 Reference value :  3.00308e-06
 Reference value :  3.00419e-06
 Reference value :  3.00519e-06
 Reference value :  3.00639e-06
 Reference value :  3.00807e-06
 Reference value :  3.01010e-06
 Reference value :  3.01105e-06
 Reference value :  3.01197e-06
 Reference value :  3.01371e-06
 Reference value :  3.01526e-06
 Reference value :  3.01708e-06
 Reference value :  3.01804e-06
 Reference value :  3.02090e-06
 Reference value :  3.03215e-06
 Reference value :  3.05523e-06
 Reference value :  3.07193e-06
 Reference value :  3.12116e-06
 Reference value :  3.13336e-06
 Reference value :  3.13890e-06
 Reference value :  3.15030e-06
 Reference value :  3.19608e-06
 Reference value :  3.24538e-06
 Reference value :  3.25013e-06
 Reference value :  3.25021e-06
 Reference value :  3.25032e-06
 Reference value :  3.25109e-06
 Reference value :  3.25203e-06
 Reference value :  3.25324e-06
 Reference value :  3.25438e-06
 Reference value :  3.25567e-06
 Reference value :  3.25965e-06
 Reference value :  3.27242e-06
 Reference value :  3.36483e-06
 Reference value :  3.50001e-06
 Reference value :  3.50010e-06
 Reference value :  3.50016e-06
 Reference value :  3.50035e-06
 Reference value :  3.50086e-06
 Reference value :  3.50163e-06
 Reference value :  3.50258e-06
 Reference value :  3.50307e-06
 Reference value :  3.50363e-06
 Reference value :  3.50418e-06
 Reference value :  3.50568e-06
 Reference value :  3.50630e-06
 Reference value :  3.50794e-06
 Reference value :  3.50889e-06
 Reference value :  3.51093e-06
 Reference value :  3.51899e-06
 Reference value :  3.54173e-06
 Reference value :  3.75010e-06
 Reference value :  3.75013e-06
 Reference value :  3.75020e-06
 Reference value :  3.75026e-06
 Reference value :  3.75045e-06
 Reference value :  3.75109e-06
 Reference value :  3.75203e-06
 Reference value :  3.75324e-06
 Reference value :  3.75377e-06
 Reference value :  3.75490e-06
 Reference value :  3.75635e-06
 Reference value :  3.76127e-06
 Reference value :  3.80340e-06
 Reference value :  4.00000e-06
 Reference value :  4.00007e-06
 Reference value :  4.00012e-06
 Reference value :  4.00035e-06
 Reference value :  4.00086e-06
 Reference value :  4.00163e-06
 Reference value :  4.00307e-06
 Reference value :  4.00418e-06
 Reference value :  4.00524e-06
 Reference value :  4.00732e-06
 Reference value :  4.01030e-06
 Reference value :  4.01341e-06
 Reference value :  4.01454e-06
 Reference value :  4.01647e-06
 Reference value :  4.01867e-06
 Reference value :  4.02438e-06
 Reference value :  4.04913e-06
 Reference value :  4.06799e-06
 Reference value :  4.08132e-06
 Reference value :  4.11192e-06
 Reference value :  4.17555e-06
 Reference value :  4.25011e-06
 Reference value :  4.25020e-06
 Reference value :  4.25032e-06
 Reference value :  4.25109e-06
 Reference value :  4.25203e-06
 Reference value :  4.25324e-06
 Reference value :  4.25432e-06
 Reference value :  4.25802e-06
 Reference value :  4.28585e-06
 Reference value :  4.50001e-06
 Reference value :  4.50012e-06
 Reference value :  4.50054e-06
 Reference value :  4.50159e-06
 Reference value :  4.50300e-06
 Reference value :  4.50490e-06
 Reference value :  4.50695e-06
 Reference value :  4.50986e-06
 Reference value :  4.51903e-06
 Reference value :  4.62571e-06
 Reference value :  4.75013e-06
 Reference value :  4.75026e-06
 Reference value :  4.75070e-06
 Reference value :  4.75203e-06
 Reference value :  4.75377e-06
 Reference value :  4.75548e-06
 Reference value :  4.75704e-06
 Reference value :  4.76042e-06
 Reference value :  4.76794e-06
 Reference value :  4.90781e-06
 Reference value :  5.00007e-06
 Reference value :  5.00012e-06
 Reference value :  5.00054e-06
 Reference value :  5.00119e-06
 Reference value :  5.00258e-06
 Reference value :  5.00419e-06
 Reference value :  5.00519e-06
 Reference value :  5.00711e-06
 Reference value :  5.00921e-06
 Reference value :  5.01010e-06
 Reference value :  5.01197e-06
 Reference value :  5.01370e-06
 Reference value :  5.01525e-06
 Reference value :  5.01802e-06
 Reference value :  5.02567e-06
 Reference value :  5.04939e-06
 Reference value :  5.07892e-06
 Reference value :  5.09901e-06
 Reference value :  5.11157e-06
 Reference value :  5.12026e-06
 Reference value :  5.15164e-06
 Reference value :  5.25010e-06
 Reference value :  5.25017e-06
 Reference value :  5.25026e-06
 Reference value :  5.25070e-06
 Reference value :  5.25202e-06
 Reference value :  5.25324e-06
 Reference value :  5.25437e-06
 Reference value :  5.25566e-06
 Reference value :  5.25964e-06
 Reference value :  5.28552e-06
 Reference value :  5.50000e-06
 Reference value :  5.50007e-06
 Reference value :  5.50012e-06
 Reference value :  5.50035e-06
 Reference value :  5.50086e-06
 Reference value :  5.50163e-06
 Reference value :  5.50258e-06
 Reference value :  5.50307e-06
 Reference value :  5.50418e-06
 Reference value :  5.50568e-06
 Reference value :  5.50630e-06
 Reference value :  5.50793e-06
 Reference value :  5.50982e-06
 Reference value :  5.51210e-06
 Reference value :  5.52653e-06
 Reference value :  5.63225e-06
 Reference value :  5.75011e-06
 Reference value :  5.75017e-06
 Reference value :  5.75021e-06
 Reference value :  5.75032e-06
 Reference value :  5.75070e-06
 Reference value :  5.75156e-06
 Reference value :  5.75251e-06
 Reference value :  5.75377e-06
 Reference value :  5.75490e-06
 Reference value :  5.75724e-06
 Reference value :  5.76447e-06
 Reference value :  5.80305e-06
 Reference value :  6.00000e-06
 Reference value :  6.00003e-06
 Reference value :  6.00010e-06
 Reference value :  6.00016e-06
 Reference value :  6.00054e-06
 Reference value :  6.00119e-06
 Reference value :  6.00210e-06
 Reference value :  6.00307e-06
 Reference value :  6.00473e-06
 Reference value :  6.00580e-06
 Reference value :  6.00866e-06
 Reference value :  6.01029e-06
 Reference value :  6.01187e-06
 Reference value :  6.01454e-06
 Reference value :  6.01647e-06
 Reference value :  6.01868e-06
 Reference value :  6.02943e-06
 Reference value :  6.03458e-06
 Reference value :  6.04221e-06
 Reference value :  6.05091e-06
 Reference value :  6.06248e-06
 Reference value :  6.08902e-06
 Reference value :  6.16426e-06
 Reference value :  6.25010e-06
 Reference value :  6.25017e-06
 Reference value :  6.25026e-06
 Reference value :  6.25070e-06
 Reference value :  6.25202e-06
 Reference value :  6.25323e-06
 Reference value :  6.25432e-06
 Reference value :  6.25569e-06
 Reference value :  6.25967e-06
 Reference value :  6.27254e-06
 Reference value :  6.36585e-06
 Reference value :  6.50001e-06
 Reference value :  6.50007e-06
 Reference value :  6.50011e-06
 Reference value :  6.50022e-06
 Reference value :  6.50086e-06
 Reference value :  6.50159e-06
 Reference value :  6.50251e-06
 Reference value :  6.50300e-06
 Reference value :  6.50411e-06
 Reference value :  6.50562e-06
 Reference value :  6.50625e-06
 Reference value :  6.50795e-06
 Reference value :  6.50986e-06
 Reference value :  6.51224e-06
 Reference value :  6.52615e-06
 Reference value :  6.62567e-06
 Reference value :  6.75011e-06
 Reference value :  6.75020e-06
 Reference value :  6.75026e-06
 Reference value :  6.75070e-06
 Reference value :  6.75156e-06
 Reference value :  6.75251e-06
 Reference value :  6.75376e-06
 Reference value :  6.75490e-06
 Reference value :  6.75622e-06
 Reference value :  6.75889e-06
 Reference value :  6.76474e-06
 Reference value :  6.80162e-06
 Reference value :  7.00001e-06
 Reference value :  7.00010e-06
 Reference value :  7.00022e-06
 Reference value :  7.00086e-06
 Reference value :  7.00163e-06
 Reference value :  7.00308e-06
 Reference value :  7.00471e-06
 Reference value :  7.00519e-06
 Reference value :  7.00640e-06
 Reference value :  7.00807e-06
 Reference value :  7.01010e-06
 Reference value :  7.01197e-06
 Reference value :  7.01368e-06
 Reference value :  7.01525e-06
 Reference value :  7.01803e-06
 Reference value :  7.02529e-06
 Reference value :  7.05215e-06
 Reference value :  7.25010e-06
 Reference value :  7.25017e-06
 Reference value :  7.25026e-06
 Reference value :  7.25070e-06
 Reference value :  7.25202e-06
 Reference value :  7.25376e-06
 Reference value :  7.25499e-06
 Reference value :  7.25796e-06
 Reference value :  7.27202e-06
 Reference value :  7.46468e-06
 Reference value :  7.50007e-06
 Reference value :  7.50012e-06
 Reference value :  7.50035e-06
 Reference value :  7.50086e-06
 Reference value :  7.50159e-06
 Reference value :  7.50300e-06
 Reference value :  7.50488e-06
 Reference value :  7.50625e-06
 Reference value :  7.50795e-06
 Reference value :  7.51109e-06
 Reference value :  7.52622e-06
 Reference value :  7.62622e-06
 Reference value :  7.75011e-06
 Reference value :  7.75020e-06
 Reference value :  7.75026e-06
 Reference value :  7.75070e-06
 Reference value :  7.75156e-06
 Reference value :  7.75251e-06
 Reference value :  7.75376e-06
 Reference value :  7.75490e-06
 Reference value :  7.75622e-06
 Reference value :  7.75888e-06
 Reference value :  7.76471e-06
 Reference value :  7.78427e-06
 Reference value :  7.90198e-06
 Reference value :  8.00007e-06
 Reference value :  8.00016e-06
 Reference value :  8.00054e-06
 Reference value :  8.00119e-06
 Reference value :  8.00209e-06
 Reference value :  8.00308e-06
 Reference value :  8.00415e-06
 Reference value :  8.00515e-06
 Reference value :  8.00703e-06
 Reference value :  8.00859e-06
 Reference value :  8.01087e-06
 Reference value :  8.01642e-06
 Reference value :  8.02211e-06
 Reference value :  8.07247e-06
 Reference value :  8.25011e-06
 Reference value :  8.25021e-06
 Reference value :  8.25045e-06
 Reference value :  8.25156e-06
 Reference value :  8.25251e-06
 Reference value :  8.25392e-06
 Reference value :  8.25675e-06
 Reference value :  8.26308e-06
 Reference value :  8.31909e-06
 Reference value :  8.50000e-06
 Reference value :  8.50000e-06
 Reference value :  8.50000e-06
 Reference value :  8.50004e-06
 Reference value :  8.50011e-06
 Reference value :  8.50027e-06
 Reference value :  8.50073e-06
 Reference value :  8.50162e-06
 Reference value :  8.50254e-06
 Reference value :  8.50306e-06
 Reference value :  8.50359e-06
 Reference value :  8.50463e-06
 Reference value :  8.50651e-06
 Reference value :  8.51686e-06
 Reference value :  8.52285e-06
 Reference value :  8.52874e-06
 Reference value :  8.53292e-06
 Reference value :  8.53899e-06
 Reference value :  8.54280e-06
 Reference value :  8.55625e-06
 Reference value :  8.57943e-06
 Reference value :  8.60403e-06
 Reference value :  8.66831e-06
 Reference value :  8.75013e-06
 Reference value :  8.75021e-06
 Reference value :  8.75032e-06
 Reference value :  8.75109e-06
 Reference value :  8.75202e-06
 Reference value :  8.75322e-06
 Reference value :  8.75374e-06
 Reference value :  8.75497e-06
 Reference value :  8.75785e-06
 Reference value :  8.76533e-06
 Reference value :  8.80900e-06
 Reference value :  8.95875e-06
 Reference value :  9.00003e-06
 Reference value :  9.00010e-06
 Reference value :  9.00012e-06
 Reference value :  9.00022e-06
 Reference value :  9.00086e-06
 Reference value :  9.00159e-06
 Reference value :  9.00251e-06
 Reference value :  9.00300e-06
 Reference value :  9.00410e-06
 Reference value :  9.00560e-06
 Reference value :  9.00863e-06
 Reference value :  9.00988e-06
 Reference value :  9.01260e-06
 Reference value :  9.01606e-06
 Reference value :  9.02140e-06
 Reference value :  9.04834e-06
 Reference value :  9.21772e-06
 Reference value :  9.25013e-06
 Reference value :  9.25021e-06
 Reference value :  9.25032e-06
 Reference value :  9.25070e-06
 Reference value :  9.25156e-06
 Reference value :  9.25203e-06
 Reference value :  9.25323e-06
 Reference value :  9.25375e-06
 Reference value :  9.25489e-06
 Reference value :  9.25623e-06
 Reference value :  9.25762e-06
 Reference value :  9.25954e-06
 Reference value :  9.26598e-06
 Reference value :  9.28516e-06
 Reference value :  9.39334e-06
 Reference value :  9.50003e-06
 Reference value :  9.50011e-06
 Reference value :  9.50022e-06
 Reference value :  9.50086e-06
 Reference value :  9.50163e-06
 Reference value :  9.50258e-06
 Reference value :  9.50364e-06
 Reference value :  9.50471e-06
 Reference value :  9.50574e-06
 Reference value :  9.50711e-06
 Reference value :  9.50922e-06
 Reference value :  9.51011e-06
 Reference value :  9.51199e-06
 Reference value :  9.51372e-06
 Reference value :  9.51528e-06
 Reference value :  9.51712e-06
 Reference value :  9.51913e-06
 Reference value :  9.52268e-06
 Reference value :  9.54071e-06
 Reference value :  9.64868e-06
 Reference value :  9.75011e-06
 Reference value :  9.75020e-06
 Reference value :  9.75032e-06
 Reference value :  9.75156e-06
 Reference value :  9.75323e-06
 Reference value :  9.75435e-06
 Reference value :  9.75563e-06
 Reference value :  9.76239e-06
 Reference value :  9.86169e-06
 Reference value :  1.00001e-05
 Reference value :  1.00001e-05
 Reference value :  1.00003e-05
 Reference value :  1.00009e-05
 Reference value :  1.00016e-05
 Reference value :  1.00025e-05
 Reference value :  1.00030e-05
 Reference value :  1.00041e-05
 Reference value :  1.00056e-05
 Reference value :  1.00062e-05
 Reference value :  1.00079e-05
 Reference value :  1.00099e-05
 Reference value :  1.00122e-05
 Reference value :  1.00405e-05
 Reference value :  1.02501e-05
 Reference value :  1.02502e-05
 Reference value :  1.02502e-05
 Reference value :  1.02504e-05
 Reference value :  1.02511e-05
 Reference value :  1.02520e-05
 Reference value :  1.02532e-05
 Reference value :  1.02538e-05
 Reference value :  1.02549e-05
 Reference value :  1.02562e-05
 Reference value :  1.02589e-05
 Reference value :  1.02621e-05
 Reference value :  1.02742e-05
 Reference value :  1.03359e-05
 Reference value :  1.05000e-05
 Reference value :  1.05001e-05
 Reference value :  1.05001e-05
 Reference value :  1.05003e-05
 Reference value :  1.05009e-05
 Reference value :  1.05016e-05
 Reference value :  1.05026e-05
 Reference value :  1.05031e-05
 Reference value :  1.05042e-05
 Reference value :  1.05052e-05
 Reference value :  1.05064e-05
 Reference value :  1.05081e-05
 Reference value :  1.05101e-05
 Reference value :  1.05120e-05
 Reference value :  1.05137e-05
 Reference value :  1.05152e-05
 Reference value :  1.05171e-05
 Reference value :  1.05180e-05
 Reference value :  1.05208e-05
 Reference value :  1.05255e-05
 Reference value :  1.05548e-05
 Reference value :  1.06193e-05
 Reference value :  1.07501e-05
 Reference value :  1.07501e-05
 Reference value :  1.07502e-05
 Reference value :  1.07502e-05
 Reference value :  1.07503e-05
 Reference value :  1.07507e-05
 Reference value :  1.07516e-05
 Reference value :  1.07520e-05
 Reference value :  1.07532e-05
 Reference value :  1.07538e-05
 Reference value :  1.07550e-05
 Reference value :  1.07564e-05
 Reference value :  1.07624e-05
 Reference value :  1.07720e-05
 Reference value :  1.08617e-05
 Reference value :  1.10000e-05
 Reference value :  1.10001e-05
 Reference value :  1.10001e-05
 Reference value :  1.10002e-05
 Reference value :  1.10005e-05
 Reference value :  1.10009e-05
 Reference value :  1.10016e-05
 Reference value :  1.10025e-05
 Reference value :  1.10030e-05
 Reference value :  1.10041e-05
 Reference value :  1.10056e-05
 Reference value :  1.10062e-05
 Reference value :  1.10079e-05
 Reference value :  1.10099e-05
 Reference value :  1.10145e-05
 Reference value :  1.10691e-05
 Reference value :  1.12501e-05
 Reference value :  1.12502e-05
 Reference value :  1.12503e-05
 Reference value :  1.12511e-05
 Reference value :  1.12520e-05
 Reference value :  1.12538e-05
 Reference value :  1.12555e-05
 Reference value :  1.12579e-05
 Reference value :  1.12647e-05
 Reference value :  1.13017e-05
 Reference value :  1.15000e-05
 Reference value :  1.15001e-05
 Reference value :  1.15002e-05
 Reference value :  1.15009e-05
 Reference value :  1.15021e-05
 Reference value :  1.15031e-05
 Reference value :  1.15042e-05
 Reference value :  1.15052e-05
 Reference value :  1.15064e-05
 Reference value :  1.15081e-05
 Reference value :  1.15101e-05
 Reference value :  1.15120e-05
 Reference value :  1.15137e-05
 Reference value :  1.15153e-05
 Reference value :  1.15181e-05
 Reference value :  1.15225e-05
 Reference value :  1.15511e-05
 Reference value :  1.15845e-05
 Reference value :  1.16176e-05
 Reference value :  1.16397e-05
 Reference value :  1.16664e-05
 Reference value :  1.17379e-05
 Reference value :  1.17501e-05
 Reference value :  1.17502e-05
 Reference value :  1.17504e-05
 Reference value :  1.17516e-05
 Reference value :  1.17525e-05
 Reference value :  1.17538e-05
 Reference value :  1.17550e-05
 Reference value :  1.17580e-05
 Reference value :  1.17724e-05
 Reference value :  1.18642e-05
 Reference value :  1.20000e-05
 Reference value :  1.20001e-05
 Reference value :  1.20005e-05
 Reference value :  1.20012e-05
 Reference value :  1.20021e-05
 Reference value :  1.20031e-05
 Reference value :  1.20049e-05
 Reference value :  1.20063e-05
 Reference value :  1.20079e-05
 Reference value :  1.20109e-05
 Reference value :  1.20265e-05
 Reference value :  1.22501e-05
 Reference value :  1.22502e-05
 Reference value :  1.22502e-05
 Reference value :  1.22504e-05
 Reference value :  1.22516e-05
 Reference value :  1.22525e-05
 Reference value :  1.22538e-05
 Reference value :  1.22549e-05
 Reference value :  1.22563e-05
 Reference value :  1.22612e-05
 Reference value :  1.23030e-05
 Reference value :  1.25000e-05
 Reference value :  1.25001e-05
 Reference value :  1.25003e-05
 Reference value :  1.25012e-05
 Reference value :  1.25021e-05
 Reference value :  1.25031e-05
 Reference value :  1.25042e-05
 Reference value :  1.25052e-05
 Reference value :  1.25073e-05
 Reference value :  1.25103e-05
 Reference value :  1.25134e-05
 Reference value :  1.25156e-05
 Reference value :  1.25175e-05
 Reference value :  1.25219e-05
 Reference value :  1.25490e-05
 Reference value :  1.25678e-05
 Reference value :  1.25811e-05
 Reference value :  1.25950e-05
 Reference value :  1.26096e-05
 Reference value :  1.26702e-05
 Reference value :  1.27501e-05
 Reference value :  1.27502e-05
 Reference value :  1.27503e-05
 Reference value :  1.27507e-05
 Reference value :  1.27516e-05
 Reference value :  1.27525e-05
 Reference value :  1.27537e-05
 Reference value :  1.27557e-05
 Reference value :  1.27597e-05
 Reference value :  1.27726e-05
 Reference value :  1.29728e-05
 Reference value :  1.30000e-05
 Reference value :  1.30001e-05
 Reference value :  1.30002e-05
 Reference value :  1.30009e-05
 Reference value :  1.30016e-05
 Reference value :  1.30030e-05
 Reference value :  1.30041e-05
 Reference value :  1.30056e-05
 Reference value :  1.30062e-05
 Reference value :  1.30080e-05
 Reference value :  1.30111e-05
 Reference value :  1.30262e-05
 Reference value :  1.32393e-05
 Reference value :  1.32501e-05
 Reference value :  1.32502e-05
 Reference value :  1.32503e-05
 Reference value :  1.32511e-05
 Reference value :  1.32520e-05
 Reference value :  1.32532e-05
 Reference value :  1.32544e-05
 Reference value :  1.32555e-05
 Reference value :  1.32570e-05
 Reference value :  1.32604e-05
 Reference value :  1.32679e-05
 Reference value :  1.33017e-05
 Reference value :  1.35000e-05
 Reference value :  1.35001e-05
 Reference value :  1.35001e-05
 Reference value :  1.35003e-05
 Reference value :  1.35009e-05
 Reference value :  1.35016e-05
 Reference value :  1.35031e-05
 Reference value :  1.35047e-05
 Reference value :  1.35064e-05
 Reference value :  1.35081e-05
 Reference value :  1.35101e-05
 Reference value :  1.35120e-05
 Reference value :  1.35137e-05
 Reference value :  1.35153e-05
 Reference value :  1.35191e-05
 Reference value :  1.35379e-05
 Reference value :  1.35661e-05
 Reference value :  1.35808e-05
 Reference value :  1.35884e-05
 Reference value :  1.35937e-05
 Reference value :  1.36058e-05
 Reference value :  1.36277e-05
 Reference value :  1.37358e-05
 Reference value :  1.37501e-05
 Reference value :  1.37502e-05
 Reference value :  1.37503e-05
 Reference value :  1.37511e-05
 Reference value :  1.37520e-05
 Reference value :  1.37532e-05
 Reference value :  1.37538e-05
 Reference value :  1.37550e-05
 Reference value :  1.37564e-05
 Reference value :  1.37596e-05
 Reference value :  1.37658e-05
 Reference value :  1.37855e-05
 Reference value :  1.39693e-05
 Reference value :  1.40000e-05
 Reference value :  1.40001e-05
 Reference value :  1.40005e-05
 Reference value :  1.40016e-05
 Reference value :  1.40031e-05
 Reference value :  1.40057e-05
 Reference value :  1.40070e-05
 Reference value :  1.40098e-05
 Reference value :  1.40190e-05
 Reference value :  1.42501e-05
 Reference value :  1.42503e-05
 Reference value :  1.42516e-05
 Reference value :  1.42525e-05
 Reference value :  1.42538e-05
 Reference value :  1.42549e-05
 Reference value :  1.42563e-05
 Reference value :  1.42645e-05
 Reference value :  1.44353e-05
 Reference value :  1.45001e-05
 Reference value :  1.45002e-05
 Reference value :  1.45005e-05
 Reference value :  1.45012e-05
 Reference value :  1.45021e-05
 Reference value :  1.45031e-05
 Reference value :  1.45047e-05
 Reference value :  1.45058e-05
 Reference value :  1.45087e-05
 Reference value :  1.45119e-05
 Reference value :  1.45145e-05
 Reference value :  1.45165e-05
 Reference value :  1.45187e-05
 Reference value :  1.45286e-05
 Reference value :  1.45388e-05
 Reference value :  1.45467e-05
 Reference value :  1.45555e-05
 Reference value :  1.45740e-05
 Reference value :  1.46412e-05
 Reference value :  1.47501e-05
 Reference value :  1.47502e-05
 Reference value :  1.47507e-05
 Reference value :  1.47520e-05
 Reference value :  1.47532e-05
 Reference value :  1.47543e-05
 Reference value :  1.47565e-05
 Reference value :  1.47659e-05
 Reference value :  1.48659e-05
 Reference value :  1.50000e-05
 Reference value :  1.50001e-05
 Reference value :  1.50003e-05
 Reference value :  1.50009e-05
 Reference value :  1.50016e-05
 Reference value :  1.50030e-05
 Reference value :  1.50041e-05
 Reference value :  1.50056e-05
 Reference value :  1.50070e-05
 Reference value :  1.50099e-05
 Reference value :  1.50191e-05
 Reference value :  1.51256e-05
 Reference value :  1.52501e-05
 Reference value :  1.52502e-05
 Reference value :  1.52507e-05
 Reference value :  1.52520e-05
 Reference value :  1.52538e-05
 Reference value :  1.52555e-05
 Reference value :  1.52579e-05
 Reference value :  1.52647e-05
 Reference value :  1.54046e-05
 Reference value :  1.55015e-05
 Reference value :  1.55062e-05
 Reference value :  1.55101e-05
 Reference value :  1.55123e-05
 Reference value :  1.55143e-05
 Reference value :  1.55161e-05
 Reference value :  1.55190e-05
 Reference value :  1.55268e-05
 Reference value :  1.55617e-05
 Reference value :  1.57501e-05
 Reference value :  1.57502e-05
 Reference value :  1.57503e-05
 Reference value :  1.57507e-05
 Reference value :  1.57516e-05
 Reference value :  1.57525e-05
 Reference value :  1.57537e-05
 Reference value :  1.57549e-05
 Reference value :  1.57576e-05
 Reference value :  1.57709e-05
 Reference value :  1.59530e-05
 Reference value :  1.60000e-05
 Reference value :  1.60001e-05
 Reference value :  1.60003e-05
 Reference value :  1.60009e-05
 Reference value :  1.60016e-05
 Reference value :  1.60025e-05
 Reference value :  1.60036e-05
 Reference value :  1.60049e-05
 Reference value :  1.60062e-05
 Reference value :  1.60089e-05
 Reference value :  1.60122e-05
 Reference value :  1.60262e-05
 Reference value :  1.61262e-05
 Reference value :  1.62501e-05
 Reference value :  1.62502e-05
 Reference value :  1.62503e-05
 Reference value :  1.62507e-05
 Reference value :  1.62516e-05
 Reference value :  1.62525e-05
 Reference value :  1.62538e-05
 Reference value :  1.62549e-05
 Reference value :  1.62562e-05
 Reference value :  1.62589e-05
 Reference value :  1.62679e-05
 Reference value :  1.63013e-05
 Reference value :  1.65000e-05
 Reference value :  1.65001e-05
 Reference value :  1.65002e-05
 Reference value :  1.65005e-05
 Reference value :  1.65012e-05
 Reference value :  1.65021e-05
 Reference value :  1.65031e-05
 Reference value :  1.65041e-05
 Reference value :  1.65057e-05
 Reference value :  1.65077e-05
 Reference value :  1.65101e-05
 Reference value :  1.65164e-05
 Reference value :  1.65260e-05
 Reference value :  1.66068e-05
 Reference value :  1.67067e-05
 Reference value :  1.67501e-05
 Reference value :  1.67502e-05
 Reference value :  1.67503e-05
 Reference value :  1.67511e-05
 Reference value :  1.67520e-05
 Reference value :  1.67539e-05
 Reference value :  1.67568e-05
 Reference value :  1.67601e-05
 Reference value :  1.67893e-05
 Reference value :  1.68897e-05
 Reference value :  1.70000e-05
 Reference value :  1.70000e-05
 Reference value :  1.70000e-05
 Reference value :  1.70001e-05
 Reference value :  1.70001e-05
 Reference value :  1.70003e-05
 Reference value :  1.70012e-05
 Reference value :  1.70020e-05
 Reference value :  1.70031e-05
 Reference value :  1.70036e-05
 Reference value :  1.70046e-05
 Reference value :  1.70058e-05
 Reference value :  1.70095e-05
 Reference value :  1.70228e-05
 Reference value :  1.70289e-05
 Reference value :  1.70332e-05
 Reference value :  1.70387e-05
 Reference value :  1.70434e-05
 Reference value :  1.70484e-05
 Reference value :  1.70546e-05
 Reference value :  1.70647e-05
 Reference value :  1.70775e-05
 Reference value :  1.70888e-05
 Reference value :  1.71006e-05
 Reference value :  1.71203e-05
 Reference value :  1.71736e-05
 Reference value :  1.72501e-05
 Reference value :  1.72502e-05
 Reference value :  1.72503e-05
 Reference value :  1.72507e-05
 Reference value :  1.72516e-05
 Reference value :  1.72525e-05
 Reference value :  1.72537e-05
 Reference value :  1.72550e-05
 Reference value :  1.72581e-05
 Reference value :  1.72727e-05
 Reference value :  1.74740e-05
 Reference value :  1.75001e-05
 Reference value :  1.75001e-05
 Reference value :  1.75005e-05
 Reference value :  1.75012e-05
 Reference value :  1.75020e-05
 Reference value :  1.75030e-05
 Reference value :  1.75049e-05
 Reference value :  1.75086e-05
 Reference value :  1.75113e-05
 Reference value :  1.75126e-05
 Reference value :  1.75161e-05
 Reference value :  1.75256e-05
 Reference value :  1.75734e-05
 Reference value :  1.77501e-05
 Reference value :  1.77502e-05
 Reference value :  1.77503e-05
 Reference value :  1.77511e-05
 Reference value :  1.77520e-05
 Reference value :  1.77532e-05
 Reference value :  1.77543e-05
 Reference value :  1.77555e-05
 Reference value :  1.77569e-05
 Reference value :  1.77585e-05
 Reference value :  1.77628e-05
 Reference value :  1.77834e-05
 Reference value :  1.78828e-05
 Reference value :  1.80009e-05
 Reference value :  1.80037e-05
 Reference value :  1.80056e-05
 Reference value :  1.80072e-05
 Reference value :  1.80102e-05
 Reference value :  1.80121e-05
 Reference value :  1.80138e-05
 Reference value :  1.80155e-05
 Reference value :  1.80183e-05
 Reference value :  1.80307e-05
 Reference value :  1.81833e-05
 Reference value :  1.82502e-05
 Reference value :  1.82503e-05
 Reference value :  1.82507e-05
 Reference value :  1.82516e-05
 Reference value :  1.82525e-05
 Reference value :  1.82537e-05
 Reference value :  1.82548e-05
 Reference value :  1.82574e-05
 Reference value :  1.82706e-05
 Reference value :  1.84400e-05
 Reference value :  1.85001e-05
 Reference value :  1.85002e-05
 Reference value :  1.85009e-05
 Reference value :  1.85016e-05
 Reference value :  1.85025e-05
 Reference value :  1.85036e-05
 Reference value :  1.85056e-05
 Reference value :  1.85062e-05
 Reference value :  1.85079e-05
 Reference value :  1.85111e-05
 Reference value :  1.85191e-05
 Reference value :  1.86262e-05
 Reference value :  1.87501e-05
 Reference value :  1.87502e-05
 Reference value :  1.87503e-05
 Reference value :  1.87511e-05
 Reference value :  1.87520e-05
 Reference value :  1.87532e-05
 Reference value :  1.87544e-05
 Reference value :  1.87562e-05
 Reference value :  1.87604e-05
 Reference value :  1.88016e-05
 Reference value :  1.90001e-05
 Reference value :  1.90002e-05
 Reference value :  1.90012e-05
 Reference value :  1.90031e-05
 Reference value :  1.90047e-05
 Reference value :  1.90064e-05
 Reference value :  1.90092e-05
 Reference value :  1.90110e-05
 Reference value :  1.90130e-05
 Reference value :  1.90152e-05
 Reference value :  1.90180e-05
 Reference value :  1.90395e-05
 Reference value :  1.92501e-05
 Reference value :  1.92502e-05
 Reference value :  1.92511e-05
 Reference value :  1.92525e-05
 Reference value :  1.92543e-05
 Reference value :  1.92564e-05
 Reference value :  1.92720e-05
 Reference value :  1.95008e-05
 Reference value :  1.95031e-05
 Reference value :  1.95048e-05
 Reference value :  1.95065e-05
 Reference value :  1.95083e-05
 Reference value :  1.95103e-05
 Reference value :  1.95126e-05
 Reference value :  1.95269e-05
 Reference value :  1.96269e-05
 Reference value :  1.97501e-05
 Reference value :  1.97501e-05
 Reference value :  1.97502e-05
 Reference value :  1.97503e-05
 Reference value :  1.97504e-05
 Reference value :  1.97511e-05
 Reference value :  1.97520e-05
 Reference value :  1.97532e-05
 Reference value :  1.97537e-05
 Reference value :  1.97548e-05
 Reference value :  1.97562e-05
 Reference value :  1.97588e-05
 Reference value :  1.97643e-05
 Reference value :  1.97821e-05
 Reference value :  1.98732e-05
 Reference value :  2.00000e-05
 Reference value :  2.00001e-05
 Reference value :  2.00002e-05
 Reference value :  2.00005e-05
 Reference value :  2.00012e-05
 Reference value :  2.00021e-05
 Reference value :  2.00031e-05
 Reference value :  2.00047e-05
 Reference value :  2.00057e-05
 Reference value :  2.00081e-05
 Reference value :  2.00101e-05
 Reference value :  2.00120e-05
 Reference value :  2.00137e-05
 Reference value :  2.00153e-05
 Reference value :  2.00181e-05
 Reference value :  2.00260e-05
 Reference value :  2.00704e-05
 Reference value :  2.01188e-05
 Reference value :  2.01305e-05
 Reference value :  2.01406e-05
 Reference value :  2.01886e-05
 Reference value :  2.02291e-05
 Reference value :  2.02501e-05
 Reference value :  2.02502e-05
 Reference value :  2.02504e-05
 Reference value :  2.02516e-05
 Reference value :  2.02525e-05
 Reference value :  2.02538e-05
 Reference value :  2.02550e-05
 Reference value :  2.02580e-05
 Reference value :  2.02723e-05
 Reference value :  2.04687e-05
 Reference value :  2.05005e-05
 Reference value :  2.05021e-05
 Reference value :  2.05032e-05
 Reference value :  2.05044e-05
 Reference value :  2.05059e-05
 Reference value :  2.05075e-05
 Reference value :  2.05095e-05
 Reference value :  2.05117e-05
 Reference value :  2.05190e-05
 Reference value :  2.05528e-05
 Reference value :  2.07297e-05
 Reference value :  2.07501e-05
 Reference value :  2.07502e-05
 Reference value :  2.07503e-05
 Reference value :  2.07511e-05
 Reference value :  2.07525e-05
 Reference value :  2.07538e-05
 Reference value :  2.07549e-05
 Reference value :  2.07563e-05
 Reference value :  2.07644e-05
 Reference value :  2.09310e-05
 Reference value :  2.10001e-05
 Reference value :  2.10001e-05
 Reference value :  2.10003e-05
 Reference value :  2.10009e-05
 Reference value :  2.10016e-05
 Reference value :  2.10031e-05
 Reference value :  2.10047e-05
 Reference value :  2.10058e-05
 Reference value :  2.10087e-05
 Reference value :  2.10103e-05
 Reference value :  2.10119e-05
 Reference value :  2.10145e-05
 Reference value :  2.10165e-05
 Reference value :  2.10187e-05
 Reference value :  2.10219e-05
 Reference value :  2.10391e-05
 Reference value :  2.10489e-05
 Reference value :  2.10680e-05
 Reference value :  2.10814e-05
 Reference value :  2.10952e-05
 Reference value :  2.11099e-05
 Reference value :  2.11702e-05
 Reference value :  2.12501e-05
 Reference value :  2.12502e-05
 Reference value :  2.12502e-05
 Reference value :  2.12504e-05
 Reference value :  2.12511e-05
 Reference value :  2.12520e-05
 Reference value :  2.12532e-05
 Reference value :  2.12537e-05
 Reference value :  2.12550e-05
 Reference value :  2.12565e-05
 Reference value :  2.12597e-05
 Reference value :  2.12726e-05
 Reference value :  2.13126e-05
 Reference value :  2.14728e-05
 Reference value :  2.15000e-05
 Reference value :  2.15001e-05
 Reference value :  2.15001e-05
 Reference value :  2.15002e-05
 Reference value :  2.15003e-05
 Reference value :  2.15009e-05
 Reference value :  2.15012e-05
 Reference value :  2.15016e-05
 Reference value :  2.15020e-05
 Reference value :  2.15030e-05
 Reference value :  2.15036e-05
 Reference value :  2.15049e-05
 Reference value :  2.15056e-05
 Reference value :  2.15062e-05
 Reference value :  2.15080e-05
 Reference value :  2.15099e-05
 Reference value :  2.15122e-05
 Reference value :  2.15191e-05
 Reference value :  2.15404e-05
 Reference value :  2.17393e-05
 Reference value :  2.17501e-05
 Reference value :  2.17502e-05
 Reference value :  2.17503e-05
 Reference value :  2.17511e-05
 Reference value :  2.17520e-05
 Reference value :  2.17532e-05
 Reference value :  2.17544e-05
 Reference value :  2.17555e-05
 Reference value :  2.17570e-05
 Reference value :  2.17621e-05
 Reference value :  2.18361e-05
 Reference value :  2.20015e-05
 Reference value :  2.20046e-05
 Reference value :  2.20061e-05
 Reference value :  2.20090e-05
 Reference value :  2.20113e-05
 Reference value :  2.20134e-05
 Reference value :  2.20143e-05
 Reference value :  2.20162e-05
 Reference value :  2.20182e-05
 Reference value :  2.20192e-05
 Reference value :  2.20222e-05
 Reference value :  2.20288e-05
 Reference value :  2.20469e-05
 Reference value :  2.20666e-05
 Reference value :  2.20738e-05
 Reference value :  2.20811e-05
 Reference value :  2.20862e-05
 Reference value :  2.20988e-05
 Reference value :  2.21182e-05
 Reference value :  2.21934e-05
 Reference value :  2.22501e-05
 Reference value :  2.22502e-05
 Reference value :  2.22503e-05
 Reference value :  2.22507e-05
 Reference value :  2.22520e-05
 Reference value :  2.22537e-05
 Reference value :  2.22555e-05
 Reference value :  2.22619e-05
 Reference value :  2.23592e-05
 Reference value :  2.25000e-05
 Reference value :  2.25001e-05
 Reference value :  2.25005e-05
 Reference value :  2.25012e-05
 Reference value :  2.25026e-05
 Reference value :  2.25036e-05
 Reference value :  2.25057e-05
 Reference value :  2.25063e-05
 Reference value :  2.25079e-05
 Reference value :  2.25098e-05
 Reference value :  2.25144e-05
 Reference value :  2.25716e-05
 Reference value :  2.27501e-05
 Reference value :  2.27502e-05
 Reference value :  2.27503e-05
 Reference value :  2.27511e-05
 Reference value :  2.27520e-05
 Reference value :  2.27532e-05
 Reference value :  2.27544e-05
 Reference value :  2.27555e-05
 Reference value :  2.27572e-05
 Reference value :  2.27645e-05
 Reference value :  2.28469e-05
 Reference value :  2.30012e-05
 Reference value :  2.30047e-05
 Reference value :  2.30068e-05
 Reference value :  2.30103e-05
 Reference value :  2.30118e-05
 Reference value :  2.30141e-05
 Reference value :  2.30164e-05
 Reference value :  2.30185e-05
 Reference value :  2.30231e-05
 Reference value :  2.30370e-05
 Reference value :  2.30446e-05
 Reference value :  2.30600e-05
 Reference value :  2.30762e-05
 Reference value :  2.30966e-05
 Reference value :  2.31424e-05
 Reference value :  2.32501e-05
 Reference value :  2.32502e-05
 Reference value :  2.32503e-05
 Reference value :  2.32504e-05
 Reference value :  2.32511e-05
 Reference value :  2.32520e-05
 Reference value :  2.32531e-05
 Reference value :  2.32536e-05
 Reference value :  2.32548e-05
 Reference value :  2.32562e-05
 Reference value :  2.32589e-05
 Reference value :  2.32643e-05
 Reference value :  2.32821e-05
 Reference value :  2.33418e-05
 Reference value :  2.35000e-05
 Reference value :  2.35000e-05
 Reference value :  2.35001e-05
 Reference value :  2.35001e-05
 Reference value :  2.35003e-05
 Reference value :  2.35012e-05
 Reference value :  2.35020e-05
 Reference value :  2.35030e-05
 Reference value :  2.35049e-05
 Reference value :  2.35062e-05
 Reference value :  2.35089e-05
 Reference value :  2.35122e-05
 Reference value :  2.35690e-05
 Reference value :  2.37501e-05
 Reference value :  2.37502e-05
 Reference value :  2.37504e-05
 Reference value :  2.37516e-05
 Reference value :  2.37532e-05
 Reference value :  2.37549e-05
 Reference value :  2.37570e-05
 Reference value :  2.37647e-05
 Reference value :  2.39046e-05
 Reference value :  2.40001e-05
 Reference value :  2.40002e-05
 Reference value :  2.40009e-05
 Reference value :  2.40026e-05
 Reference value :  2.40042e-05
 Reference value :  2.40057e-05
 Reference value :  2.40081e-05
 Reference value :  2.40101e-05
 Reference value :  2.40120e-05
 Reference value :  2.40137e-05
 Reference value :  2.40152e-05
 Reference value :  2.40171e-05
 Reference value :  2.40190e-05
 Reference value :  2.40253e-05
 Reference value :  2.40521e-05
 Reference value :  2.41764e-05
 Reference value :  2.42501e-05
 Reference value :  2.42502e-05
 Reference value :  2.42503e-05
 Reference value :  2.42511e-05
 Reference value :  2.42520e-05
 Reference value :  2.42532e-05
 Reference value :  2.42538e-05
 Reference value :  2.42550e-05
 Reference value :  2.42580e-05
 Reference value :  2.42656e-05
 Reference value :  2.43619e-05
 Reference value :  2.45000e-05
 Reference value :  2.45001e-05
 Reference value :  2.45003e-05
 Reference value :  2.45012e-05
 Reference value :  2.45025e-05
 Reference value :  2.45036e-05
 Reference value :  2.45056e-05
 Reference value :  2.45062e-05
 Reference value :  2.45089e-05
 Reference value :  2.45145e-05
 Reference value :  2.45691e-05
 Reference value :  2.47501e-05
 Reference value :  2.47502e-05
 Reference value :  2.47504e-05
 Reference value :  2.47516e-05
 Reference value :  2.47525e-05
 Reference value :  2.47538e-05
 Reference value :  2.47549e-05
 Reference value :  2.47562e-05
 Reference value :  2.47589e-05
 Reference value :  2.47679e-05
 Reference value :  2.48347e-05
 Reference value :  2.50000e-05
 Reference value :  2.50001e-05
 Reference value :  2.50002e-05
 Reference value :  2.50009e-05
 Reference value :  2.50016e-05
 Reference value :  2.50026e-05
 Reference value :  2.50031e-05
 Reference value :  2.50041e-05
 Reference value :  2.50052e-05
 Reference value :  2.50063e-05
 Reference value :  2.50077e-05
 Reference value :  2.50093e-05
 Reference value :  2.50109e-05
 Reference value :  2.50155e-05
 Reference value :  2.50178e-05
 Reference value :  2.50338e-05
 Reference value :  2.50862e-05
 Reference value :  2.51082e-05
 Reference value :  2.51240e-05
 Reference value :  2.51605e-05
 Reference value :  2.52025e-05
 Reference value :  2.52501e-05
 Reference value :  2.52502e-05
 Reference value :  2.52503e-05
 Reference value :  2.52507e-05
 Reference value :  2.52516e-05
 Reference value :  2.52525e-05
 Reference value :  2.52539e-05
 Reference value :  2.52568e-05
 Reference value :  2.52601e-05
 Reference value :  2.52892e-05
 Reference value :  2.55000e-05
 Reference value :  2.55000e-05
 Reference value :  2.55000e-05
 Reference value :  2.55000e-05
 Reference value :  2.55001e-05
 Reference value :  2.55001e-05
 Reference value :  2.55002e-05
 Reference value :  2.55007e-05
 Reference value :  2.55020e-05
 Reference value :  2.55031e-05
 Reference value :  2.55046e-05
 Reference value :  2.55079e-05
 Reference value :  2.55229e-05
 Reference value :  2.55289e-05
 Reference value :  2.55367e-05
 Reference value :  2.55434e-05
 Reference value :  2.55635e-05
 Reference value :  2.55838e-05
 Reference value :  2.56040e-05
 Reference value :  2.56641e-05
 Reference value :  2.57502e-05
 Reference value :  2.57503e-05
 Reference value :  2.57516e-05
 Reference value :  2.57532e-05
 Reference value :  2.57550e-05
 Reference value :  2.57596e-05
 Reference value :  2.58652e-05
 Reference value :  2.60001e-05
 Reference value :  2.60002e-05
 Reference value :  2.60012e-05
 Reference value :  2.60025e-05
 Reference value :  2.60036e-05
 Reference value :  2.60070e-05
 Reference value :  2.60099e-05
 Reference value :  2.60141e-05
 Reference value :  2.60334e-05
 Reference value :  2.62501e-05
 Reference value :  2.62502e-05
 Reference value :  2.62502e-05
 Reference value :  2.62504e-05
 Reference value :  2.62516e-05
 Reference value :  2.62525e-05
 Reference value :  2.62538e-05
 Reference value :  2.62549e-05
 Reference value :  2.62562e-05
 Reference value :  2.62585e-05
 Reference value :  2.62628e-05
 Reference value :  2.62750e-05
 Reference value :  2.63139e-05
 Reference value :  2.65000e-05
 Reference value :  2.65009e-05
 Reference value :  2.65038e-05
 Reference value :  2.65056e-05
 Reference value :  2.65083e-05
 Reference value :  2.65104e-05
 Reference value :  2.65123e-05
 Reference value :  2.65141e-05
 Reference value :  2.65157e-05
 Reference value :  2.65185e-05
 Reference value :  2.65233e-05
 Reference value :  2.65622e-05
 Reference value :  2.67501e-05
 Reference value :  2.67502e-05
 Reference value :  2.67502e-05
 Reference value :  2.67504e-05
 Reference value :  2.67516e-05
 Reference value :  2.67525e-05
 Reference value :  2.67536e-05
 Reference value :  2.67548e-05
 Reference value :  2.67563e-05
 Reference value :  2.67614e-05
 Reference value :  2.68047e-05
 Reference value :  2.70000e-05
 Reference value :  2.70001e-05
 Reference value :  2.70002e-05
 Reference value :  2.70009e-05
 Reference value :  2.70016e-05
 Reference value :  2.70030e-05
 Reference value :  2.70049e-05
 Reference value :  2.70062e-05
 Reference value :  2.70079e-05
 Reference value :  2.70099e-05
 Reference value :  2.70145e-05
 Reference value :  2.70691e-05
 Reference value :  2.72501e-05
 Reference value :  2.72502e-05
 Reference value :  2.72503e-05
 Reference value :  2.72511e-05
 Reference value :  2.72520e-05
 Reference value :  2.72532e-05
 Reference value :  2.72544e-05
 Reference value :  2.72555e-05
 Reference value :  2.72562e-05
 Reference value :  2.72589e-05
 Reference value :  2.72647e-05
 Reference value :  2.73016e-05
 Reference value :  2.75000e-05
 Reference value :  2.75001e-05
 Reference value :  2.75002e-05
 Reference value :  2.75005e-05
 Reference value :  2.75012e-05
 Reference value :  2.75021e-05
 Reference value :  2.75031e-05
 Reference value :  2.75047e-05
 Reference value :  2.75057e-05
 Reference value :  2.75081e-05
 Reference value :  2.75101e-05
 Reference value :  2.75120e-05
 Reference value :  2.75137e-05
 Reference value :  2.75152e-05
 Reference value :  2.75171e-05
 Reference value :  2.75190e-05
 Reference value :  2.75225e-05
 Reference value :  2.75395e-05
 Reference value :  2.76193e-05
 Reference value :  2.77501e-05
 Reference value :  2.77502e-05
 Reference value :  2.77503e-05
 Reference value :  2.77507e-05
 Reference value :  2.77520e-05
 Reference value :  2.77532e-05
 Reference value :  2.77538e-05
 Reference value :  2.77550e-05
 Reference value :  2.77564e-05
 Reference value :  2.77624e-05
 Reference value :  2.77848e-05
 Reference value :  2.79536e-05
 Reference value :  2.80008e-05
 Reference value :  2.80031e-05
 Reference value :  2.80048e-05
 Reference value :  2.80065e-05
 Reference value :  2.80083e-05
 Reference value :  2.80103e-05
 Reference value :  2.80126e-05
 Reference value :  2.80195e-05
 Reference value :  2.80701e-05
 Reference value :  2.82501e-05
 Reference value :  2.82501e-05
 Reference value :  2.82502e-05
 Reference value :  2.82502e-05
 Reference value :  2.82503e-05
 Reference value :  2.82507e-05
 Reference value :  2.82516e-05
 Reference value :  2.82525e-05
 Reference value :  2.82537e-05
 Reference value :  2.82548e-05
 Reference value :  2.82562e-05
 Reference value :  2.82588e-05
 Reference value :  2.82643e-05
 Reference value :  2.82821e-05
 Reference value :  2.84688e-05
 Reference value :  2.85000e-05
 Reference value :  2.85001e-05
 Reference value :  2.85002e-05
 Reference value :  2.85009e-05
 Reference value :  2.85016e-05
 Reference value :  2.85031e-05
 Reference value :  2.85042e-05
 Reference value :  2.85052e-05
 Reference value :  2.85064e-05
 Reference value :  2.85081e-05
 Reference value :  2.85101e-05
 Reference value :  2.85120e-05
 Reference value :  2.85137e-05
 Reference value :  2.85153e-05
 Reference value :  2.85181e-05
 Reference value :  2.85228e-05
 Reference value :  2.85537e-05
 Reference value :  2.85851e-05
 Reference value :  2.86167e-05
 Reference value :  2.86283e-05
 Reference value :  2.86337e-05
 Reference value :  2.86447e-05
 Reference value :  2.86883e-05
 Reference value :  2.87078e-05
 Reference value :  2.87501e-05
 Reference value :  2.87502e-05
 Reference value :  2.87502e-05
 Reference value :  2.87504e-05
 Reference value :  2.87511e-05
 Reference value :  2.87520e-05
 Reference value :  2.87532e-05
 Reference value :  2.87538e-05
 Reference value :  2.87550e-05
 Reference value :  2.87580e-05
 Reference value :  2.87658e-05
 Reference value :  2.88116e-05
 Reference value :  2.90000e-05
 Reference value :  2.90005e-05
 Reference value :  2.90021e-05
 Reference value :  2.90032e-05
 Reference value :  2.90051e-05
 Reference value :  2.90059e-05
 Reference value :  2.90075e-05
 Reference value :  2.90095e-05
 Reference value :  2.90117e-05
 Reference value :  2.90250e-05
 Reference value :  2.91377e-05
 Reference value :  2.92501e-05
 Reference value :  2.92502e-05
 Reference value :  2.92503e-05
 Reference value :  2.92511e-05
 Reference value :  2.92520e-05
 Reference value :  2.92538e-05
 Reference value :  2.92549e-05
 Reference value :  2.92572e-05
 Reference value :  2.92697e-05
 Reference value :  2.93450e-05
 Reference value :  2.95000e-05
 Reference value :  2.95001e-05
 Reference value :  2.95002e-05
 Reference value :  2.95003e-05
 Reference value :  2.95012e-05
 Reference value :  2.95021e-05
 Reference value :  2.95031e-05
 Reference value :  2.95047e-05
 Reference value :  2.95058e-05
 Reference value :  2.95087e-05
 Reference value :  2.95119e-05
 Reference value :  2.95145e-05
 Reference value :  2.95165e-05
 Reference value :  2.95197e-05
 Reference value :  2.95446e-05
 Reference value :  2.95645e-05
 Reference value :  2.95848e-05
 Reference value :  2.96538e-05
 Reference value :  2.97501e-05
 Reference value :  2.97502e-05
 Reference value :  2.97507e-05
 Reference value :  2.97520e-05
 Reference value :  2.97537e-05
 Reference value :  2.97580e-05
 Reference value :  2.97726e-05
 Reference value :  3.00000e-05
 Reference value :  3.00001e-05
 Reference value :  3.00002e-05
 Reference value :  3.00005e-05
 Reference value :  3.00016e-05
 Reference value :  3.00030e-05
 Reference value :  3.00049e-05
 Reference value :  3.00062e-05
 Reference value :  3.00089e-05
 Reference value :  3.00111e-05
 Reference value :  3.00261e-05
 Reference value :  3.02501e-05
 Reference value :  3.02503e-05
 Reference value :  3.02511e-05
 Reference value :  3.02525e-05
 Reference value :  3.02538e-05
 Reference value :  3.02555e-05
 Reference value :  3.02579e-05
 Reference value :  3.02647e-05
 Reference value :  3.03361e-05
 Reference value :  3.05015e-05
 Reference value :  3.05046e-05
 Reference value :  3.05061e-05
 Reference value :  3.05090e-05
 Reference value :  3.05113e-05
 Reference value :  3.05134e-05
 Reference value :  3.05151e-05
 Reference value :  3.05182e-05
 Reference value :  3.05222e-05
 Reference value :  3.05464e-05
 Reference value :  3.05637e-05
 Reference value :  3.05771e-05
 Reference value :  3.05978e-05
 Reference value :  3.07501e-05
 Reference value :  3.07502e-05
 Reference value :  3.07507e-05
 Reference value :  3.07525e-05
 Reference value :  3.07543e-05
 Reference value :  3.07576e-05
 Reference value :  3.08089e-05
 Reference value :  3.10000e-05
 Reference value :  3.10002e-05
 Reference value :  3.10009e-05
 Reference value :  3.10021e-05
 Reference value :  3.10036e-05
 Reference value :  3.10057e-05
 Reference value :  3.10070e-05
 Reference value :  3.10089e-05
 Reference value :  3.10144e-05
 Reference value :  3.12501e-05
 Reference value :  3.12502e-05
 Reference value :  3.12504e-05
 Reference value :  3.12516e-05
 Reference value :  3.12525e-05
 Reference value :  3.12538e-05
 Reference value :  3.12555e-05
 Reference value :  3.12612e-05
 Reference value :  3.15000e-05
 Reference value :  3.15001e-05
 Reference value :  3.15002e-05
 Reference value :  3.15009e-05
 Reference value :  3.15021e-05
 Reference value :  3.15031e-05
 Reference value :  3.15047e-05
 Reference value :  3.15058e-05
 Reference value :  3.15087e-05
 Reference value :  3.15119e-05
 Reference value :  3.15145e-05
 Reference value :  3.15165e-05
 Reference value :  3.15187e-05
 Reference value :  3.15293e-05
 Reference value :  3.15563e-05
 Reference value :  3.15809e-05
 Reference value :  3.15978e-05
 Reference value :  3.16249e-05
 Reference value :  3.16548e-05
 Reference value :  3.17354e-05
 Reference value :  3.17501e-05
 Reference value :  3.17502e-05
 Reference value :  3.17503e-05
 Reference value :  3.17507e-05
 Reference value :  3.17516e-05
 Reference value :  3.17520e-05
 Reference value :  3.17532e-05
 Reference value :  3.17537e-05
 Reference value :  3.17550e-05
 Reference value :  3.17565e-05
 Reference value :  3.17625e-05
 Reference value :  3.17859e-05
 Reference value :  3.20000e-05
 Reference value :  3.20001e-05
 Reference value :  3.20002e-05
 Reference value :  3.20005e-05
 Reference value :  3.20009e-05
 Reference value :  3.20016e-05
 Reference value :  3.20030e-05
 Reference value :  3.20049e-05
 Reference value :  3.20062e-05
 Reference value :  3.20080e-05
 Reference value :  3.20111e-05
 Reference value :  3.20262e-05
 Reference value :  3.22393e-05
 Reference value :  3.22501e-05
 Reference value :  3.22502e-05
 Reference value :  3.22503e-05
 Reference value :  3.22511e-05
 Reference value :  3.22520e-05
 Reference value :  3.22538e-05
 Reference value :  3.22549e-05
 Reference value :  3.22562e-05
 Reference value :  3.22589e-05
 Reference value :  3.22679e-05
 Reference value :  3.24047e-05
 Reference value :  3.25000e-05
 Reference value :  3.25001e-05
 Reference value :  3.25002e-05
 Reference value :  3.25009e-05
 Reference value :  3.25016e-05
 Reference value :  3.25031e-05
 Reference value :  3.25047e-05
 Reference value :  3.25052e-05
 Reference value :  3.25064e-05
 Reference value :  3.25081e-05
 Reference value :  3.25101e-05
 Reference value :  3.25110e-05
 Reference value :  3.25120e-05
 Reference value :  3.25137e-05
 Reference value :  3.25152e-05
 Reference value :  3.25171e-05
 Reference value :  3.25190e-05
 Reference value :  3.25253e-05
 Reference value :  3.25392e-05
 Reference value :  3.26764e-05
 Reference value :  3.27501e-05
 Reference value :  3.27502e-05
 Reference value :  3.27504e-05
 Reference value :  3.27511e-05
 Reference value :  3.27520e-05
 Reference value :  3.27532e-05
 Reference value :  3.27543e-05
 Reference value :  3.27556e-05
 Reference value :  3.27580e-05
 Reference value :  3.27656e-05
 Reference value :  3.28619e-05
 Reference value :  3.30000e-05
 Reference value :  3.30001e-05
 Reference value :  3.30003e-05
 Reference value :  3.30009e-05
 Reference value :  3.30016e-05
 Reference value :  3.30030e-05
 Reference value :  3.30049e-05
 Reference value :  3.30062e-05
 Reference value :  3.30079e-05
 Reference value :  3.30111e-05
 Reference value :  3.30262e-05
 Reference value :  3.32405e-05
 Reference value :  3.32501e-05
 Reference value :  3.32502e-05
 Reference value :  3.32503e-05
 Reference value :  3.32511e-05
 Reference value :  3.32520e-05
 Reference value :  3.32532e-05
 Reference value :  3.32538e-05
 Reference value :  3.32549e-05
 Reference value :  3.32562e-05
 Reference value :  3.32589e-05
 Reference value :  3.32679e-05
 Reference value :  3.33347e-05
 Reference value :  3.35016e-05
 Reference value :  3.35048e-05
 Reference value :  3.35064e-05
 Reference value :  3.35093e-05
 Reference value :  3.35116e-05
 Reference value :  3.35162e-05
 Reference value :  3.35207e-05
 Reference value :  3.35384e-05
 Reference value :  3.35585e-05
 Reference value :  3.35662e-05
 Reference value :  3.35843e-05
 Reference value :  3.36232e-05
 Reference value :  3.37501e-05
 Reference value :  3.37502e-05
 Reference value :  3.37502e-05
 Reference value :  3.37504e-05
 Reference value :  3.37516e-05
 Reference value :  3.37525e-05
 Reference value :  3.37539e-05
 Reference value :  3.37556e-05
 Reference value :  3.37599e-05
 Reference value :  3.37730e-05
 Reference value :  3.38683e-05
 Reference value :  3.40000e-05
 Reference value :  3.40000e-05
 Reference value :  3.40000e-05
 Reference value :  3.40000e-05
 Reference value :  3.40001e-05
 Reference value :  3.40001e-05
 Reference value :  3.40002e-05
 Reference value :  3.40007e-05
 Reference value :  3.40016e-05
 Reference value :  3.40025e-05
 Reference value :  3.40036e-05
 Reference value :  3.40046e-05
 Reference value :  3.40058e-05
 Reference value :  3.40095e-05
 Reference value :  3.40228e-05
 Reference value :  3.40289e-05
 Reference value :  3.40332e-05
 Reference value :  3.40387e-05
 Reference value :  3.40434e-05
 Reference value :  3.40536e-05
 Reference value :  3.40635e-05
 Reference value :  3.40775e-05
 Reference value :  3.40929e-05
 Reference value :  3.41043e-05
 Reference value :  3.41094e-05
 Reference value :  3.41201e-05
 Reference value :  3.41414e-05
 Reference value :  3.42175e-05
 Reference value :  3.42501e-05
 Reference value :  3.42502e-05
 Reference value :  3.42502e-05
 Reference value :  3.42503e-05
 Reference value :  3.42504e-05
 Reference value :  3.42511e-05
 Reference value :  3.42520e-05
 Reference value :  3.42532e-05
 Reference value :  3.42537e-05
 Reference value :  3.42550e-05
 Reference value :  3.42580e-05
 Reference value :  3.42659e-05
 Reference value :  3.43128e-05
 Reference value :  3.45000e-05
 Reference value :  3.45001e-05
 Reference value :  3.45001e-05
 Reference value :  3.45002e-05
 Reference value :  3.45009e-05
 Reference value :  3.45016e-05
 Reference value :  3.45025e-05
 Reference value :  3.45036e-05
 Reference value :  3.45056e-05
 Reference value :  3.45099e-05
 Reference value :  3.45126e-05
 Reference value :  3.45214e-05
 Reference value :  3.46226e-05
 Reference value :  3.47502e-05
 Reference value :  3.47503e-05
 Reference value :  3.47516e-05
 Reference value :  3.47525e-05
 Reference value :  3.47538e-05
 Reference value :  3.47549e-05
 Reference value :  3.47562e-05
 Reference value :  3.47576e-05
 Reference value :  3.47594e-05
 Reference value :  3.47655e-05
 Reference value :  3.47956e-05
 Reference value :  3.49438e-05
 Reference value :  3.50000e-05
 Reference value :  3.50001e-05
 Reference value :  3.50002e-05
 Reference value :  3.50009e-05
 Reference value :  3.50021e-05
 Reference value :  3.50031e-05
 Reference value :  3.50047e-05
 Reference value :  3.50057e-05
 Reference value :  3.50081e-05
 Reference value :  3.50101e-05
 Reference value :  3.50120e-05
 Reference value :  3.50137e-05
 Reference value :  3.50153e-05
 Reference value :  3.50171e-05
 Reference value :  3.50191e-05
 Reference value :  3.50227e-05
 Reference value :  3.50406e-05
 Reference value :  3.51479e-05
 Reference value :  3.52501e-05
 Reference value :  3.52502e-05
 Reference value :  3.52507e-05
 Reference value :  3.52520e-05
 Reference value :  3.52532e-05
 Reference value :  3.52543e-05
 Reference value :  3.52556e-05
 Reference value :  3.52656e-05
 Reference value :  3.53616e-05
 Reference value :  3.55000e-05
 Reference value :  3.55001e-05
 Reference value :  3.55003e-05
 Reference value :  3.55012e-05
 Reference value :  3.55020e-05
 Reference value :  3.55036e-05
 Reference value :  3.55056e-05
 Reference value :  3.55062e-05
 Reference value :  3.55089e-05
 Reference value :  3.55122e-05
 Reference value :  3.55691e-05
 Reference value :  3.57501e-05
 Reference value :  3.57503e-05
 Reference value :  3.57516e-05
 Reference value :  3.57532e-05
 Reference value :  3.57549e-05
 Reference value :  3.57570e-05
 Reference value :  3.57621e-05
 Reference value :  3.58016e-05
 Reference value :  3.60016e-05
 Reference value :  3.60064e-05
 Reference value :  3.60093e-05
 Reference value :  3.60116e-05
 Reference value :  3.60138e-05
 Reference value :  3.60154e-05
 Reference value :  3.60173e-05
 Reference value :  3.60208e-05
 Reference value :  3.60538e-05
 Reference value :  3.62501e-05
 Reference value :  3.62502e-05
 Reference value :  3.62502e-05
 Reference value :  3.62503e-05
 Reference value :  3.62511e-05
 Reference value :  3.62520e-05
 Reference value :  3.62532e-05
 Reference value :  3.62543e-05
 Reference value :  3.62556e-05
 Reference value :  3.62595e-05
 Reference value :  3.62840e-05
 Reference value :  3.65000e-05
 Reference value :  3.65001e-05
 Reference value :  3.65002e-05
 Reference value :  3.65005e-05
 Reference value :  3.65012e-05
 Reference value :  3.65020e-05
 Reference value :  3.65030e-05
 Reference value :  3.65041e-05
 Reference value :  3.65056e-05
 Reference value :  3.65062e-05
 Reference value :  3.65079e-05
 Reference value :  3.65099e-05
 Reference value :  3.65145e-05
 Reference value :  3.65690e-05
 Reference value :  3.67501e-05
 Reference value :  3.67502e-05
 Reference value :  3.67503e-05
 Reference value :  3.67511e-05
 Reference value :  3.67520e-05
 Reference value :  3.67532e-05
 Reference value :  3.67544e-05
 Reference value :  3.67555e-05
 Reference value :  3.67570e-05
 Reference value :  3.67604e-05
 Reference value :  3.67679e-05
 Reference value :  3.68014e-05
 Reference value :  3.70000e-05
 Reference value :  3.70001e-05
 Reference value :  3.70001e-05
 Reference value :  3.70003e-05
 Reference value :  3.70009e-05
 Reference value :  3.70016e-05
 Reference value :  3.70031e-05
 Reference value :  3.70042e-05
 Reference value :  3.70052e-05
 Reference value :  3.70064e-05
 Reference value :  3.70081e-05
 Reference value :  3.70101e-05
 Reference value :  3.70120e-05
 Reference value :  3.70137e-05
 Reference value :  3.70153e-05
 Reference value :  3.70171e-05
 Reference value :  3.70181e-05
 Reference value :  3.70208e-05
 Reference value :  3.70316e-05
 Reference value :  3.70666e-05
 Reference value :  3.71146e-05
 Reference value :  3.71262e-05
 Reference value :  3.71314e-05
 Reference value :  3.71525e-05
 Reference value :  3.72051e-05
 Reference value :  3.72501e-05
 Reference value :  3.72502e-05
 Reference value :  3.72502e-05
 Reference value :  3.72503e-05
 Reference value :  3.72507e-05
 Reference value :  3.72516e-05
 Reference value :  3.72520e-05
 Reference value :  3.72532e-05
 Reference value :  3.72538e-05
 Reference value :  3.72550e-05
 Reference value :  3.72564e-05
 Reference value :  3.72596e-05
 Reference value :  3.72658e-05
 Reference value :  3.73117e-05
 Reference value :  3.74691e-05
 Reference value :  3.75000e-05
 Reference value :  3.75001e-05
 Reference value :  3.75001e-05
 Reference value :  3.75002e-05
 Reference value :  3.75005e-05
 Reference value :  3.75012e-05
 Reference value :  3.75016e-05
 Reference value :  3.75026e-05
 Reference value :  3.75031e-05
 Reference value :  3.75042e-05
 Reference value :  3.75057e-05
 Reference value :  3.75063e-05
 Reference value :  3.75079e-05
 Reference value :  3.75098e-05
 Reference value :  3.75121e-05
 Reference value :  3.75265e-05
 Reference value :  3.77501e-05
 Reference value :  3.77502e-05
 Reference value :  3.77503e-05
 Reference value :  3.77507e-05
 Reference value :  3.77520e-05
 Reference value :  3.77538e-05
 Reference value :  3.77549e-05
 Reference value :  3.77563e-05
 Reference value :  3.77612e-05
 Reference value :  3.78031e-05
 Reference value :  3.80001e-05
 Reference value :  3.80002e-05
 Reference value :  3.80009e-05
 Reference value :  3.80016e-05
 Reference value :  3.80031e-05
 Reference value :  3.80047e-05
 Reference value :  3.80058e-05
 Reference value :  3.80087e-05
 Reference value :  3.80119e-05
 Reference value :  3.80145e-05
 Reference value :  3.80165e-05
 Reference value :  3.80186e-05
 Reference value :  3.80237e-05
 Reference value :  3.80446e-05
 Reference value :  3.80560e-05
 Reference value :  3.80753e-05
 Reference value :  3.80894e-05
 Reference value :  3.81111e-05
 Reference value :  3.82026e-05
 Reference value :  3.82501e-05
 Reference value :  3.82502e-05
 Reference value :  3.82504e-05
 Reference value :  3.82516e-05
 Reference value :  3.82525e-05
 Reference value :  3.82537e-05
 Reference value :  3.82557e-05
 Reference value :  3.82597e-05
 Reference value :  3.82726e-05
 Reference value :  3.84728e-05
 Reference value :  3.85005e-05
 Reference value :  3.85019e-05
 Reference value :  3.85029e-05
 Reference value :  3.85041e-05
 Reference value :  3.85056e-05
 Reference value :  3.85063e-05
 Reference value :  3.85079e-05
 Reference value :  3.85098e-05
 Reference value :  3.85144e-05
 Reference value :  3.85416e-05
 Reference value :  3.87501e-05
 Reference value :  3.87502e-05
 Reference value :  3.87503e-05
 Reference value :  3.87507e-05
 Reference value :  3.87520e-05
 Reference value :  3.87532e-05
 Reference value :  3.87544e-05
 Reference value :  3.87555e-05
 Reference value :  3.87570e-05
 Reference value :  3.87589e-05
 Reference value :  3.87621e-05
 Reference value :  3.87743e-05
 Reference value :  3.88380e-05
 Reference value :  3.90000e-05
 Reference value :  3.90001e-05
 Reference value :  3.90002e-05
 Reference value :  3.90009e-05
 Reference value :  3.90021e-05
 Reference value :  3.90031e-05
 Reference value :  3.90052e-05
 Reference value :  3.90081e-05
 Reference value :  3.90101e-05
 Reference value :  3.90120e-05
 Reference value :  3.90137e-05
 Reference value :  3.90153e-05
 Reference value :  3.90181e-05
 Reference value :  3.90226e-05
 Reference value :  3.90478e-05
 Reference value :  3.90702e-05
 Reference value :  3.90910e-05
 Reference value :  3.91737e-05
 Reference value :  3.92501e-05
 Reference value :  3.92502e-05
 Reference value :  3.92504e-05
 Reference value :  3.92516e-05
 Reference value :  3.92532e-05
 Reference value :  3.92550e-05
 Reference value :  3.92596e-05
 Reference value :  3.92854e-05
 Reference value :  3.95000e-05
 Reference value :  3.95001e-05
 Reference value :  3.95002e-05
 Reference value :  3.95005e-05
 Reference value :  3.95012e-05
 Reference value :  3.95021e-05
 Reference value :  3.95031e-05
 Reference value :  3.95042e-05
 Reference value :  3.95057e-05
 Reference value :  3.95063e-05
 Reference value :  3.95079e-05
 Reference value :  3.95098e-05
 Reference value :  3.95121e-05
 Reference value :  3.95265e-05
 Reference value :  3.96319e-05
 Reference value :  3.97501e-05
 Reference value :  3.97502e-05
 Reference value :  3.97504e-05
 Reference value :  3.97520e-05
 Reference value :  3.97538e-05
 Reference value :  3.97563e-05
 Reference value :  3.97645e-05
 Reference value :  4.00000e-05
 Reference value :  4.00001e-05
 Reference value :  4.00003e-05
 Reference value :  4.00012e-05
 Reference value :  4.00026e-05
 Reference value :  4.00036e-05
 Reference value :  4.00052e-05
 Reference value :  4.00073e-05
 Reference value :  4.00103e-05
 Reference value :  4.00134e-05
 Reference value :  4.00145e-05
 Reference value :  4.00165e-05
 Reference value :  4.00198e-05
 Reference value :  4.00460e-05
 Reference value :  4.01089e-05
 Reference value :  4.01564e-05
 Reference value :  4.01937e-05
 Reference value :  4.02501e-05
 Reference value :  4.02503e-05
 Reference value :  4.02520e-05
 Reference value :  4.02537e-05
 Reference value :  4.02565e-05
 Reference value :  4.02859e-05
 Reference value :  4.05000e-05
 Reference value :  4.05001e-05
 Reference value :  4.05009e-05
 Reference value :  4.05020e-05
 Reference value :  4.05036e-05
 Reference value :  4.05056e-05
 Reference value :  4.05070e-05
 Reference value :  4.05089e-05
 Reference value :  4.05122e-05
 Reference value :  4.05688e-05
 Reference value :  4.07502e-05
 Reference value :  4.07503e-05
 Reference value :  4.07511e-05
 Reference value :  4.07525e-05
 Reference value :  4.07538e-05
 Reference value :  4.07555e-05
 Reference value :  4.07579e-05
 Reference value :  4.07647e-05
 Reference value :  4.08360e-05
 Reference value :  4.10015e-05
 Reference value :  4.10046e-05
 Reference value :  4.10062e-05
 Reference value :  4.10101e-05
 Reference value :  4.10123e-05
 Reference value :  4.10151e-05
 Reference value :  4.10170e-05
 Reference value :  4.10200e-05
 Reference value :  4.10264e-05
 Reference value :  4.10573e-05
 Reference value :  4.12501e-05
 Reference value :  4.12502e-05
 Reference value :  4.12502e-05
 Reference value :  4.12504e-05
 Reference value :  4.12511e-05
 Reference value :  4.12520e-05
 Reference value :  4.12532e-05
 Reference value :  4.12537e-05
 Reference value :  4.12549e-05
 Reference value :  4.12563e-05
 Reference value :  4.12592e-05
 Reference value :  4.12709e-05
 Reference value :  4.13559e-05
 Reference value :  4.15000e-05
 Reference value :  4.15001e-05
 Reference value :  4.15001e-05
 Reference value :  4.15002e-05
 Reference value :  4.15009e-05
 Reference value :  4.15016e-05
 Reference value :  4.15025e-05
 Reference value :  4.15030e-05
 Reference value :  4.15041e-05
 Reference value :  4.15056e-05
 Reference value :  4.15062e-05
 Reference value :  4.15079e-05
 Reference value :  4.15098e-05
 Reference value :  4.15145e-05
 Reference value :  4.15409e-05
 Reference value :  4.17023e-05
 Reference value :  4.17501e-05
 Reference value :  4.17501e-05
 Reference value :  4.17502e-05
 Reference value :  4.17503e-05
 Reference value :  4.17507e-05
 Reference value :  4.17516e-05
 Reference value :  4.17520e-05
 Reference value :  4.17532e-05
 Reference value :  4.17537e-05
 Reference value :  4.17549e-05
 Reference value :  4.17563e-05
 Reference value :  4.17590e-05
 Reference value :  4.17644e-05
 Reference value :  4.17766e-05
 Reference value :  4.17965e-05
 Reference value :  4.18852e-05
 Reference value :  4.20000e-05
 Reference value :  4.20001e-05
 Reference value :  4.20001e-05
 Reference value :  4.20002e-05
 Reference value :  4.20005e-05
 Reference value :  4.20009e-05
 Reference value :  4.20016e-05
 Reference value :  4.20026e-05
 Reference value :  4.20031e-05
 Reference value :  4.20042e-05
 Reference value :  4.20053e-05
 Reference value :  4.20065e-05
 Reference value :  4.20081e-05
 Reference value :  4.20100e-05
 Reference value :  4.20177e-05
 Reference value :  4.20728e-05
 Reference value :  4.22501e-05
 Reference value :  4.22502e-05
 Reference value :  4.22502e-05
 Reference value :  4.22503e-05
 Reference value :  4.22507e-05
 Reference value :  4.22516e-05
 Reference value :  4.22525e-05
 Reference value :  4.22539e-05
 Reference value :  4.22558e-05
 Reference value :  4.22584e-05
 Reference value :  4.22668e-05
 Reference value :  4.23191e-05
 Reference value :  4.25000e-05
 Reference value :  4.25000e-05
 Reference value :  4.25000e-05
 Reference value :  4.25000e-05
 Reference value :  4.25000e-05
 Reference value :  4.25001e-05
 Reference value :  4.25001e-05
 Reference value :  4.25002e-05
 Reference value :  4.25007e-05
 Reference value :  4.25016e-05
 Reference value :  4.25020e-05
 Reference value :  4.25031e-05
 Reference value :  4.25036e-05
 Reference value :  4.25046e-05
 Reference value :  4.25058e-05
 Reference value :  4.25079e-05
 Reference value :  4.25169e-05
 Reference value :  4.25229e-05
 Reference value :  4.25289e-05
 Reference value :  4.25332e-05
 Reference value :  4.25365e-05
 Reference value :  4.25386e-05
 Reference value :  4.25413e-05
 Reference value :  4.25442e-05
 Reference value :  4.25509e-05
 Reference value :  4.25595e-05
 Reference value :  4.25788e-05
 Reference value :  4.25869e-05
 Reference value :  4.25977e-05
 Reference value :  4.26081e-05
 Reference value :  4.26202e-05
 Reference value :  4.26520e-05
 Reference value :  4.27501e-05
 Reference value :  4.27502e-05
 Reference value :  4.27503e-05
 Reference value :  4.27507e-05
 Reference value :  4.27516e-05
 Reference value :  4.27525e-05
 Reference value :  4.27537e-05
 Reference value :  4.27557e-05
 Reference value :  4.27626e-05
 Reference value :  4.28666e-05
 Reference value :  4.30000e-05
 Reference value :  4.30001e-05
 Reference value :  4.30005e-05
 Reference value :  4.30016e-05
 Reference value :  4.30030e-05
 Reference value :  4.30049e-05
 Reference value :  4.30086e-05
 Reference value :  4.30113e-05
 Reference value :  4.30126e-05
 Reference value :  4.30178e-05
 Reference value :  4.30485e-05
 Reference value :  4.32501e-05
 Reference value :  4.32502e-05
 Reference value :  4.32502e-05
 Reference value :  4.32504e-05
 Reference value :  4.32516e-05
 Reference value :  4.32525e-05
 Reference value :  4.32538e-05
 Reference value :  4.32549e-05
 Reference value :  4.32562e-05
 Reference value :  4.32576e-05
 Reference value :  4.32594e-05
 Reference value :  4.32693e-05
 Reference value :  4.33140e-05
 Reference value :  4.35000e-05
 Reference value :  4.35010e-05
 Reference value :  4.35041e-05
 Reference value :  4.35059e-05
 Reference value :  4.35085e-05
 Reference value :  4.35105e-05
 Reference value :  4.35123e-05
 Reference value :  4.35140e-05
 Reference value :  4.35156e-05
 Reference value :  4.35183e-05
 Reference value :  4.35225e-05
 Reference value :  4.35507e-05
 Reference value :  4.37501e-05
 Reference value :  4.37502e-05
 Reference value :  4.37504e-05
 Reference value :  4.37520e-05
 Reference value :  4.37536e-05
 Reference value :  4.37548e-05
 Reference value :  4.37563e-05
 Reference value :  4.37614e-05
 Reference value :  4.37821e-05
 Reference value :  4.39176e-05
 Reference value :  4.40000e-05
 Reference value :  4.40001e-05
 Reference value :  4.40001e-05
 Reference value :  4.40002e-05
 Reference value :  4.40005e-05
 Reference value :  4.40009e-05
 Reference value :  4.40016e-05
 Reference value :  4.40025e-05
 Reference value :  4.40030e-05
 Reference value :  4.40049e-05
 Reference value :  4.40062e-05
 Reference value :  4.40089e-05
 Reference value :  4.40122e-05
 Reference value :  4.40262e-05
 Reference value :  4.42404e-05
 Reference value :  4.42501e-05
 Reference value :  4.42502e-05
 Reference value :  4.42504e-05
 Reference value :  4.42516e-05
 Reference value :  4.42525e-05
 Reference value :  4.42538e-05
 Reference value :  4.42549e-05
 Reference value :  4.42562e-05
 Reference value :  4.42589e-05
 Reference value :  4.42742e-05
 Reference value :  4.45000e-05
 Reference value :  4.45001e-05
 Reference value :  4.45003e-05
 Reference value :  4.45012e-05
 Reference value :  4.45026e-05
 Reference value :  4.45042e-05
 Reference value :  4.45057e-05
 Reference value :  4.45081e-05
 Reference value :  4.45101e-05
 Reference value :  4.45120e-05
 Reference value :  4.45137e-05
 Reference value :  4.45152e-05
 Reference value :  4.45180e-05
 Reference value :  4.45315e-05
 Reference value :  4.46773e-05
 Reference value :  4.47502e-05
 Reference value :  4.47503e-05
 Reference value :  4.47516e-05
 Reference value :  4.47525e-05
 Reference value :  4.47538e-05
 Reference value :  4.47556e-05
 Reference value :  4.47595e-05
 Reference value :  4.47720e-05
 Reference value :  4.48617e-05
 Reference value :  4.50000e-05
 Reference value :  4.50001e-05
 Reference value :  4.50001e-05
 Reference value :  4.50002e-05
 Reference value :  4.50005e-05
 Reference value :  4.50009e-05
 Reference value :  4.50016e-05
 Reference value :  4.50025e-05
 Reference value :  4.50030e-05
 Reference value :  4.50041e-05
 Reference value :  4.50056e-05
 Reference value :  4.50062e-05
 Reference value :  4.50079e-05
 Reference value :  4.50111e-05
 Reference value :  4.50262e-05
 Reference value :  4.52405e-05
 Reference value :  4.52501e-05
 Reference value :  4.52502e-05
 Reference value :  4.52503e-05
 Reference value :  4.52511e-05
 Reference value :  4.52520e-05
 Reference value :  4.52532e-05
 Reference value :  4.52544e-05
 Reference value :  4.52555e-05
 Reference value :  4.52570e-05
 Reference value :  4.52604e-05
 Reference value :  4.52679e-05
 Reference value :  4.53017e-05
 Reference value :  4.55000e-05
 Reference value :  4.55000e-05
 Reference value :  4.55001e-05
 Reference value :  4.55001e-05
 Reference value :  4.55002e-05
 Reference value :  4.55005e-05
 Reference value :  4.55009e-05
 Reference value :  4.55016e-05
 Reference value :  4.55026e-05
 Reference value :  4.55031e-05
 Reference value :  4.55042e-05
 Reference value :  4.55052e-05
 Reference value :  4.55064e-05
 Reference value :  4.55081e-05
 Reference value :  4.55101e-05
 Reference value :  4.55120e-05
 Reference value :  4.55137e-05
 Reference value :  4.55153e-05
 Reference value :  4.55171e-05
 Reference value :  4.55191e-05
 Reference value :  4.55226e-05
 Reference value :  4.55315e-05
 Reference value :  4.55504e-05
 Reference value :  4.55837e-05
 Reference value :  4.56168e-05
 Reference value :  4.56280e-05
 Reference value :  4.56362e-05
 Reference value :  4.56420e-05
 Reference value :  4.56599e-05
[...]
 Reference value :  1.66627e-04
 Reference value :  1.66750e-04
 Reference value :  1.66750e-04
 Reference value :  1.66751e-04
 Reference value :  1.66753e-04
 Reference value :  1.66754e-04
 Reference value :  1.66756e-04
 Reference value :  1.66786e-04
 Reference value :  1.67000e-04
 Reference value :  1.67000e-04
 Reference value :  1.67001e-04
 Reference value :  1.67002e-04
 Reference value :  1.67004e-04
 Reference value :  1.67006e-04
 Reference value :  1.67010e-04
 Reference value :  1.67040e-04
 Reference value :  1.67250e-04
 Reference value :  1.67250e-04
 Reference value :  1.67250e-04
 Reference value :  1.67252e-04
 Reference value :  1.67253e-04
 Reference value :  1.67254e-04
 Reference value :  1.67255e-04
 Reference value :  1.67256e-04
 Reference value :  1.67259e-04
 Reference value :  1.67265e-04
 Reference value :  1.67302e-04
 Reference value :  1.67500e-04
 Reference value :  1.67500e-04
 Reference value :  1.67501e-04
 Reference value :  1.67501e-04
 Reference value :  1.67502e-04
 Reference value :  1.67503e-04
 Reference value :  1.67505e-04
 Reference value :  1.67506e-04
 Reference value :  1.67508e-04
 Reference value :  1.67510e-04
 Reference value :  1.67512e-04
 Reference value :  1.67514e-04
 Reference value :  1.67515e-04
 Reference value :  1.67518e-04
 Reference value :  1.67523e-04
 Reference value :  1.67536e-04
 Reference value :  1.67558e-04
 Reference value :  1.67648e-04
 Reference value :  1.67750e-04
 Reference value :  1.67750e-04
 Reference value :  1.67750e-04
 Reference value :  1.67751e-04
 Reference value :  1.67752e-04
 Reference value :  1.67753e-04
 Reference value :  1.67754e-04
 Reference value :  1.67755e-04
 Reference value :  1.67758e-04
 Reference value :  1.67772e-04
 Reference value :  1.67965e-04
 Reference value :  1.68000e-04
 Reference value :  1.68000e-04
 Reference value :  1.68000e-04
 Reference value :  1.68000e-04
 Reference value :  1.68001e-04
 Reference value :  1.68002e-04
 Reference value :  1.68003e-04
 Reference value :  1.68003e-04
 Reference value :  1.68005e-04
 Reference value :  1.68006e-04
 Reference value :  1.68008e-04
 Reference value :  1.68010e-04
 Reference value :  1.68012e-04
 Reference value :  1.68019e-04
 Reference value :  1.68069e-04
 Reference value :  1.68241e-04
 Reference value :  1.68250e-04
 Reference value :  1.68250e-04
 Reference value :  1.68250e-04
 Reference value :  1.68250e-04
 Reference value :  1.68251e-04
 Reference value :  1.68252e-04
 Reference value :  1.68252e-04
 Reference value :  1.68253e-04
 Reference value :  1.68254e-04
 Reference value :  1.68255e-04
 Reference value :  1.68256e-04
 Reference value :  1.68259e-04
 Reference value :  1.68265e-04
 Reference value :  1.68302e-04
 Reference value :  1.68500e-04
 Reference value :  1.68500e-04
 Reference value :  1.68500e-04
 Reference value :  1.68500e-04
 Reference value :  1.68501e-04
 Reference value :  1.68502e-04
 Reference value :  1.68503e-04
 Reference value :  1.68504e-04
 Reference value :  1.68505e-04
 Reference value :  1.68506e-04
 Reference value :  1.68508e-04
 Reference value :  1.68510e-04
 Reference value :  1.68512e-04
 Reference value :  1.68514e-04
 Reference value :  1.68515e-04
 Reference value :  1.68517e-04
 Reference value :  1.68519e-04
 Reference value :  1.68526e-04
 Reference value :  1.68541e-04
 Reference value :  1.68696e-04
 Reference value :  1.68750e-04
 Reference value :  1.68750e-04
 Reference value :  1.68750e-04
 Reference value :  1.68752e-04
 Reference value :  1.68753e-04
 Reference value :  1.68754e-04
 Reference value :  1.68755e-04
 Reference value :  1.68758e-04
 Reference value :  1.68785e-04
 Reference value :  1.69000e-04
 Reference value :  1.69000e-04
 Reference value :  1.69000e-04
 Reference value :  1.69001e-04
 Reference value :  1.69002e-04
 Reference value :  1.69003e-04
 Reference value :  1.69005e-04
 Reference value :  1.69006e-04
 Reference value :  1.69008e-04
 Reference value :  1.69011e-04
 Reference value :  1.69026e-04
 Reference value :  1.69126e-04
 Reference value :  1.69250e-04
 Reference value :  1.69250e-04
 Reference value :  1.69250e-04
 Reference value :  1.69251e-04
 Reference value :  1.69252e-04
 Reference value :  1.69254e-04
 Reference value :  1.69255e-04
 Reference value :  1.69256e-04
 Reference value :  1.69259e-04
 Reference value :  1.69265e-04
 Reference value :  1.69335e-04
 Reference value :  1.69500e-04
 Reference value :  1.69500e-04
 Reference value :  1.69500e-04
 Reference value :  1.69501e-04
 Reference value :  1.69502e-04
 Reference value :  1.69503e-04
 Reference value :  1.69504e-04
 Reference value :  1.69504e-04
 Reference value :  1.69505e-04
 Reference value :  1.69506e-04
 Reference value :  1.69508e-04
 Reference value :  1.69509e-04
 Reference value :  1.69511e-04
 Reference value :  1.69515e-04
 Reference value :  1.69518e-04
 Reference value :  1.69527e-04
 Reference value :  1.69541e-04
 Reference value :  1.69548e-04
 Reference value :  1.69554e-04
 Reference value :  1.69565e-04
 Reference value :  1.69599e-04
 Reference value :  1.69690e-04
 Reference value :  1.69750e-04
 Reference value :  1.69750e-04
 Reference value :  1.69750e-04
 Reference value :  1.69751e-04
 Reference value :  1.69752e-04
 Reference value :  1.69753e-04
 Reference value :  1.69755e-04
 Reference value :  1.69758e-04
 Reference value :  1.69767e-04
 Reference value :  1.69879e-04
 Reference value :  1.70000e-04
 Reference value :  1.70000e-04
 Reference value :  1.70000e-04
 Reference value :  1.70000e-04
 Reference value :  1.70000e-04
 Reference value :  1.70000e-04
 Reference value :  1.70001e-04
 Reference value :  1.70002e-04
 Reference value :  1.70002e-04
 Reference value :  1.70003e-04
 Reference value :  1.70004e-04
 Reference value :  1.70005e-04
 Reference value :  1.70007e-04
 Reference value :  1.70017e-04
 Reference value :  1.70023e-04
 Reference value :  1.70029e-04
 Reference value :  1.70037e-04
 Reference value :  1.70041e-04
 Reference value :  1.70054e-04
 Reference value :  1.70090e-04
 Reference value :  1.70125e-04
 Reference value :  1.70137e-04
 Reference value :  1.70150e-04
 Reference value :  1.70165e-04
 Reference value :  1.70199e-04
 Reference value :  1.70250e-04
 Reference value :  1.70250e-04
 Reference value :  1.70250e-04
 Reference value :  1.70250e-04
 Reference value :  1.70251e-04
 Reference value :  1.70252e-04
 Reference value :  1.70252e-04
 Reference value :  1.70253e-04
 Reference value :  1.70254e-04
 Reference value :  1.70255e-04
 Reference value :  1.70258e-04
 Reference value :  1.70266e-04
 Reference value :  1.70313e-04
 Reference value :  1.70500e-04
 Reference value :  1.70500e-04
 Reference value :  1.70500e-04
 Reference value :  1.70500e-04
 Reference value :  1.70500e-04
 Reference value :  1.70501e-04
 Reference value :  1.70501e-04
 Reference value :  1.70502e-04
 Reference value :  1.70503e-04
 Reference value :  1.70504e-04
 Reference value :  1.70506e-04
 Reference value :  1.70509e-04
 Reference value :  1.70510e-04
 Reference value :  1.70513e-04
 Reference value :  1.70518e-04
 Reference value :  1.70549e-04
 Reference value :  1.70750e-04
 Reference value :  1.70750e-04
 Reference value :  1.70750e-04
 Reference value :  1.70751e-04
 Reference value :  1.70752e-04
 Reference value :  1.70754e-04
 Reference value :  1.70755e-04
 Reference value :  1.70757e-04
 Reference value :  1.70759e-04
 Reference value :  1.70765e-04
 Reference value :  1.70796e-04
 Reference value :  1.70945e-04
 Reference value :  1.71000e-04
 Reference value :  1.71000e-04
 Reference value :  1.71001e-04
 Reference value :  1.71002e-04
 Reference value :  1.71004e-04
 Reference value :  1.71006e-04
 Reference value :  1.71008e-04
 Reference value :  1.71010e-04
 Reference value :  1.71012e-04
 Reference value :  1.71014e-04
 Reference value :  1.71015e-04
 Reference value :  1.71018e-04
 Reference value :  1.71023e-04
 Reference value :  1.71091e-04
 Reference value :  1.71250e-04
 Reference value :  1.71250e-04
 Reference value :  1.71250e-04
 Reference value :  1.71252e-04
 Reference value :  1.71253e-04
 Reference value :  1.71254e-04
 Reference value :  1.71256e-04
 Reference value :  1.71262e-04
 Reference value :  1.71362e-04
 Reference value :  1.71500e-04
 Reference value :  1.71500e-04
 Reference value :  1.71501e-04
 Reference value :  1.71502e-04
 Reference value :  1.71504e-04
 Reference value :  1.71506e-04
 Reference value :  1.71507e-04
 Reference value :  1.71510e-04
 Reference value :  1.71519e-04
 Reference value :  1.71741e-04
 Reference value :  1.71750e-04
 Reference value :  1.71750e-04
 Reference value :  1.71751e-04
 Reference value :  1.71753e-04
 Reference value :  1.71754e-04
 Reference value :  1.71755e-04
 Reference value :  1.71758e-04
 Reference value :  1.71762e-04
 Reference value :  1.71784e-04
 Reference value :  1.72000e-04
 Reference value :  1.72000e-04
 Reference value :  1.72000e-04
 Reference value :  1.72000e-04
 Reference value :  1.72001e-04
 Reference value :  1.72002e-04
 Reference value :  1.72004e-04
 Reference value :  1.72005e-04
 Reference value :  1.72007e-04
 Reference value :  1.72009e-04
 Reference value :  1.72010e-04
 Reference value :  1.72012e-04
 Reference value :  1.72014e-04
 Reference value :  1.72015e-04
 Reference value :  1.72018e-04
 Reference value :  1.72026e-04
 Reference value :  1.72080e-04
 Reference value :  1.72250e-04
 Reference value :  1.72250e-04
 Reference value :  1.72250e-04
 Reference value :  1.72252e-04
 Reference value :  1.72253e-04
 Reference value :  1.72254e-04
 Reference value :  1.72256e-04
 Reference value :  1.72262e-04
 Reference value :  1.72310e-04
 Reference value :  1.72500e-04
 Reference value :  1.72500e-04
 Reference value :  1.72500e-04
 Reference value :  1.72501e-04
 Reference value :  1.72501e-04
 Reference value :  1.72503e-04
 Reference value :  1.72504e-04
 Reference value :  1.72506e-04
 Reference value :  1.72507e-04
 Reference value :  1.72510e-04
 Reference value :  1.72515e-04
 Reference value :  1.72569e-04
 Reference value :  1.72750e-04
 Reference value :  1.72750e-04
 Reference value :  1.72750e-04
 Reference value :  1.72751e-04
 Reference value :  1.72752e-04
 Reference value :  1.72753e-04
 Reference value :  1.72754e-04
 Reference value :  1.72755e-04
 Reference value :  1.72756e-04
 Reference value :  1.72759e-04
 Reference value :  1.72765e-04
 Reference value :  1.72802e-04
 Reference value :  1.73000e-04
 Reference value :  1.73000e-04
 Reference value :  1.73000e-04
 Reference value :  1.73000e-04
 Reference value :  1.73000e-04
 Reference value :  1.73001e-04
 Reference value :  1.73001e-04
 Reference value :  1.73002e-04
 Reference value :  1.73003e-04
 Reference value :  1.73003e-04
 Reference value :  1.73004e-04
 Reference value :  1.73005e-04
 Reference value :  1.73006e-04
 Reference value :  1.73008e-04
 Reference value :  1.73010e-04
 Reference value :  1.73012e-04
 Reference value :  1.73014e-04
 Reference value :  1.73015e-04
 Reference value :  1.73018e-04
 Reference value :  1.73021e-04
 Reference value :  1.73032e-04
 Reference value :  1.73053e-04
 Reference value :  1.73083e-04
 Reference value :  1.73096e-04
 Reference value :  1.73102e-04
 Reference value :  1.73115e-04
 Reference value :  1.73140e-04
 Reference value :  1.73182e-04
 Reference value :  1.73250e-04
 Reference value :  1.73250e-04
 Reference value :  1.73250e-04
 Reference value :  1.73250e-04
 Reference value :  1.73251e-04
 Reference value :  1.73252e-04
 Reference value :  1.73253e-04
 Reference value :  1.73254e-04
 Reference value :  1.73255e-04
 Reference value :  1.73256e-04
 Reference value :  1.73263e-04
 Reference value :  1.73285e-04
 Reference value :  1.73469e-04
 Reference value :  1.73500e-04
 Reference value :  1.73500e-04
 Reference value :  1.73500e-04
 Reference value :  1.73501e-04
 Reference value :  1.73502e-04
 Reference value :  1.73503e-04
 Reference value :  1.73503e-04
 Reference value :  1.73504e-04
 Reference value :  1.73506e-04
 Reference value :  1.73506e-04
 Reference value :  1.73508e-04
 Reference value :  1.73510e-04
 Reference value :  1.73512e-04
 Reference value :  1.73526e-04
 Reference value :  1.73632e-04
 Reference value :  1.73750e-04
 Reference value :  1.73750e-04
 Reference value :  1.73750e-04
 Reference value :  1.73751e-04
 Reference value :  1.73752e-04
 Reference value :  1.73752e-04
 Reference value :  1.73753e-04
 Reference value :  1.73754e-04
 Reference value :  1.73755e-04
 Reference value :  1.73756e-04
 Reference value :  1.73759e-04
 Reference value :  1.73770e-04
 Reference value :  1.73847e-04
 Reference value :  1.74000e-04
 Reference value :  1.74000e-04
 Reference value :  1.74000e-04
 Reference value :  1.74000e-04
 Reference value :  1.74001e-04
 Reference value :  1.74001e-04
 Reference value :  1.74002e-04
 Reference value :  1.74003e-04
 Reference value :  1.74003e-04
 Reference value :  1.74004e-04
 Reference value :  1.74005e-04
 Reference value :  1.74006e-04
 Reference value :  1.74009e-04
 Reference value :  1.74010e-04
 Reference value :  1.74013e-04
 Reference value :  1.74015e-04
 Reference value :  1.74016e-04
 Reference value :  1.74019e-04
 Reference value :  1.74024e-04
 Reference value :  1.74051e-04
 Reference value :  1.74065e-04
 Reference value :  1.74079e-04
 Reference value :  1.74098e-04
 Reference value :  1.74128e-04
 Reference value :  1.74179e-04
 Reference value :  1.74218e-04
 Reference value :  1.74241e-04
 Reference value :  1.74250e-04
 Reference value :  1.74250e-04
 Reference value :  1.74250e-04
 Reference value :  1.74250e-04
 Reference value :  1.74251e-04
 Reference value :  1.74252e-04
 Reference value :  1.74253e-04
 Reference value :  1.74254e-04
 Reference value :  1.74256e-04
 Reference value :  1.74260e-04
 Reference value :  1.74272e-04
 Reference value :  1.74469e-04
 Reference value :  1.74500e-04
 Reference value :  1.74500e-04
 Reference value :  1.74501e-04
 Reference value :  1.74502e-04
 Reference value :  1.74503e-04
 Reference value :  1.74506e-04
 Reference value :  1.74507e-04
 Reference value :  1.74509e-04
 Reference value :  1.74512e-04
 Reference value :  1.74541e-04
 Reference value :  1.74750e-04
 Reference value :  1.74750e-04
 Reference value :  1.74750e-04
 Reference value :  1.74752e-04
 Reference value :  1.74753e-04
 Reference value :  1.74755e-04
 Reference value :  1.74757e-04
 Reference value :  1.74803e-04
 Reference value :  1.75000e-04
 Reference value :  1.75000e-04
 Reference value :  1.75001e-04
 Reference value :  1.75002e-04
 Reference value :  1.75003e-04
 Reference value :  1.75005e-04
 Reference value :  1.75006e-04
 Reference value :  1.75010e-04
 Reference value :  1.75015e-04
 Reference value :  1.75017e-04
 Reference value :  1.75020e-04
 Reference value :  1.75036e-04
 Reference value :  1.75049e-04
 Reference value :  1.75065e-04
 Reference value :  1.75084e-04
 Reference value :  1.75144e-04
 Reference value :  1.75250e-04
 Reference value :  1.75250e-04
 Reference value :  1.75251e-04
 Reference value :  1.75252e-04
 Reference value :  1.75253e-04
 Reference value :  1.75254e-04
 Reference value :  1.75256e-04
 Reference value :  1.75266e-04
 Reference value :  1.75472e-04
 Reference value :  1.75500e-04
 Reference value :  1.75500e-04
 Reference value :  1.75501e-04
 Reference value :  1.75502e-04
 Reference value :  1.75504e-04
 Reference value :  1.75506e-04
 Reference value :  1.75507e-04
 Reference value :  1.75511e-04
 Reference value :  1.75569e-04
 Reference value :  1.75750e-04
 Reference value :  1.75750e-04
 Reference value :  1.75752e-04
 Reference value :  1.75753e-04
 Reference value :  1.75755e-04
 Reference value :  1.75757e-04
 Reference value :  1.75762e-04
 Reference value :  1.75802e-04
 Reference value :  1.76000e-04
 Reference value :  1.76000e-04
 Reference value :  1.76001e-04
 Reference value :  1.76002e-04
 Reference value :  1.76003e-04
 Reference value :  1.76005e-04
 Reference value :  1.76008e-04
 Reference value :  1.76010e-04
 Reference value :  1.76012e-04
 Reference value :  1.76014e-04
 Reference value :  1.76015e-04
 Reference value :  1.76018e-04
 Reference value :  1.76026e-04
 Reference value :  1.76036e-04
 Reference value :  1.76103e-04
 Reference value :  1.76250e-04
 Reference value :  1.76250e-04
 Reference value :  1.76250e-04
 Reference value :  1.76252e-04
 Reference value :  1.76253e-04
 Reference value :  1.76254e-04
 Reference value :  1.76255e-04
 Reference value :  1.76260e-04
 Reference value :  1.76285e-04
 Reference value :  1.76500e-04
 Reference value :  1.76500e-04
 Reference value :  1.76500e-04
 Reference value :  1.76501e-04
 Reference value :  1.76501e-04
 Reference value :  1.76502e-04
 Reference value :  1.76503e-04
 Reference value :  1.76504e-04
 Reference value :  1.76506e-04
 Reference value :  1.76506e-04
 Reference value :  1.76508e-04
 Reference value :  1.76510e-04
 Reference value :  1.76515e-04
 Reference value :  1.76541e-04
 Reference value :  1.76626e-04
 Reference value :  1.76750e-04
 Reference value :  1.76750e-04
 Reference value :  1.76750e-04
 Reference value :  1.76752e-04
 Reference value :  1.76753e-04
 Reference value :  1.76754e-04
 Reference value :  1.76755e-04
 Reference value :  1.76757e-04
 Reference value :  1.76760e-04
 Reference value :  1.76768e-04
 Reference value :  1.76836e-04
 Reference value :  1.77000e-04
 Reference value :  1.77000e-04
 Reference value :  1.77001e-04
 Reference value :  1.77001e-04
 Reference value :  1.77002e-04
 Reference value :  1.77003e-04
 Reference value :  1.77005e-04
 Reference value :  1.77006e-04
 Reference value :  1.77007e-04
 Reference value :  1.77009e-04
 Reference value :  1.77010e-04
 Reference value :  1.77012e-04
 Reference value :  1.77014e-04
 Reference value :  1.77015e-04
 Reference value :  1.77017e-04
 Reference value :  1.77019e-04
 Reference value :  1.77026e-04
 Reference value :  1.77041e-04
 Reference value :  1.77130e-04
 Reference value :  1.77250e-04
 Reference value :  1.77250e-04
 Reference value :  1.77250e-04
 Reference value :  1.77251e-04
 Reference value :  1.77253e-04
 Reference value :  1.77254e-04
 Reference value :  1.77256e-04
 Reference value :  1.77262e-04
 Reference value :  1.77311e-04
 Reference value :  1.77500e-04
 Reference value :  1.77500e-04
 Reference value :  1.77500e-04
 Reference value :  1.77501e-04
 Reference value :  1.77501e-04
 Reference value :  1.77502e-04
 Reference value :  1.77503e-04
 Reference value :  1.77504e-04
 Reference value :  1.77506e-04
 Reference value :  1.77506e-04
 Reference value :  1.77508e-04
 Reference value :  1.77510e-04
 Reference value :  1.77514e-04
 Reference value :  1.77526e-04
 Reference value :  1.77571e-04
 Reference value :  1.77589e-04
 Reference value :  1.77636e-04
 Reference value :  1.77750e-04
 Reference value :  1.77750e-04
 Reference value :  1.77750e-04
 Reference value :  1.77751e-04
 Reference value :  1.77753e-04
 Reference value :  1.77754e-04
 Reference value :  1.77755e-04
 Reference value :  1.77756e-04
 Reference value :  1.77761e-04
 Reference value :  1.77781e-04
 Reference value :  1.77934e-04
 Reference value :  1.78000e-04
 Reference value :  1.78000e-04
 Reference value :  1.78001e-04
 Reference value :  1.78002e-04
 Reference value :  1.78003e-04
 Reference value :  1.78005e-04
 Reference value :  1.78006e-04
 Reference value :  1.78008e-04
 Reference value :  1.78011e-04
 Reference value :  1.78039e-04
 Reference value :  1.78243e-04
 Reference value :  1.78250e-04
 Reference value :  1.78250e-04
 Reference value :  1.78250e-04
 Reference value :  1.78251e-04
 Reference value :  1.78252e-04
 Reference value :  1.78253e-04
 Reference value :  1.78255e-04
 Reference value :  1.78258e-04
 Reference value :  1.78267e-04
 Reference value :  1.78379e-04
No. of Data Rows : 25963
ngspice-44 done
