
Note: Compatibility modes selected: hs a


Circuit: ** sch_path: /home/ece/cace/sar-adc-using-sky130-pdk/runs/run_2025-09-12_21-25-08/parameters/dnl/run_1/sar_output_dnl.sch

option SCALE: Scale is set to 1e-06 for instance and model parameters
option SCALE: Scale is set to 1e-06 for instance and model parameters
option SCALE: Scale is set to 1e-06 for instance and model parameters
option SCALE: Scale is set to 1e-06 for instance and model parameters
Doing analysis at TEMP = 27.000000 and TNOM = 27.000000

Using KLU as Direct Linear Solver
Operating point simulation skipped by 'uic',
  now using transient initial conditions.
 Reference value :  1.00000e-12
 Reference value :  1.08400e-12
 Reference value :  2.30585e-12
 Reference value :  6.24842e-12
 Reference value :  5.56539e-11
 Reference value :  1.33781e-10
 Reference value :  4.04031e-10
 Reference value :  9.58315e-10
 Reference value :  4.21300e-09
 Reference value :  5.95162e-09
 Reference value :  7.92775e-09
 Reference value :  9.51124e-09
 Reference value :  1.30626e-08
 Reference value :  1.42093e-08
 Reference value :  1.59198e-08
 Reference value :  1.95551e-08
 Reference value :  2.90468e-08
 Reference value :  4.26836e-08
 Reference value :  8.75517e-08
 Reference value :  2.50110e-07
 Reference value :  2.50223e-07
 Reference value :  2.50407e-07
 Reference value :  2.50749e-07
 Reference value :  2.51450e-07
 Reference value :  2.52408e-07
 Reference value :  2.54552e-07
 Reference value :  2.56012e-07
 Reference value :  2.60861e-07
 Reference value :  2.72128e-07
 Reference value :  2.83444e-07
 Reference value :  2.90231e-07
 Reference value :  3.04453e-07
 Reference value :  3.24475e-07
 Reference value :  3.61607e-07
 Reference value :  5.00030e-07
 Reference value :  5.00124e-07
 Reference value :  5.00520e-07
 Reference value :  5.01303e-07
 Reference value :  5.02214e-07
 Reference value :  5.04076e-07
 Reference value :  5.06783e-07
 Reference value :  5.11279e-07
 Reference value :  5.14377e-07
 Reference value :  5.17707e-07
 Reference value :  5.32109e-07
 Reference value :  7.50110e-07
 Reference value :  7.50224e-07
 Reference value :  7.50448e-07
 Reference value :  7.51069e-07
 Reference value :  7.52047e-07
 Reference value :  7.53288e-07
 Reference value :  7.54714e-07
 Reference value :  7.57093e-07
 Reference value :  7.58984e-07
 Reference value :  7.61462e-07
 Reference value :  7.65820e-07
 Reference value :  7.84772e-07
 Reference value :  1.00000e-06
 Reference value :  1.00007e-06
 Reference value :  1.00012e-06
 Reference value :  1.00035e-06
 Reference value :  1.00130e-06
 Reference value :  1.00224e-06
 Reference value :  1.00341e-06
 Reference value :  1.00458e-06
 Reference value :  1.00583e-06
 Reference value :  1.00643e-06
 Reference value :  1.00899e-06
 Reference value :  1.01144e-06
 Reference value :  1.01376e-06
 Reference value :  1.01609e-06
 Reference value :  1.01830e-06
 Reference value :  1.02210e-06
 Reference value :  1.03061e-06
 Reference value :  1.10285e-06
 Reference value :  1.20469e-06
 Reference value :  1.23937e-06
 Reference value :  1.25013e-06
 Reference value :  1.25021e-06
 Reference value :  1.25032e-06
 Reference value :  1.25106e-06
 Reference value :  1.25257e-06
 Reference value :  1.25537e-06
 Reference value :  1.25788e-06
 Reference value :  1.30015e-06
 Reference value :  1.50003e-06
 Reference value :  1.50022e-06
 Reference value :  1.50130e-06
 Reference value :  1.50340e-06
 Reference value :  1.50532e-06
 Reference value :  1.50729e-06
 Reference value :  1.50924e-06
 Reference value :  1.51236e-06
 Reference value :  1.53095e-06
 Reference value :  1.75010e-06
 Reference value :  1.75017e-06
 Reference value :  1.75026e-06
 Reference value :  1.75070e-06
 Reference value :  1.75204e-06
 Reference value :  1.75406e-06
 Reference value :  1.75540e-06
 Reference value :  1.75698e-06
 Reference value :  1.76545e-06
 Reference value :  1.88779e-06
 Reference value :  2.00003e-06
 Reference value :  2.00012e-06
 Reference value :  2.00035e-06
 Reference value :  2.00130e-06
 Reference value :  2.00224e-06
 Reference value :  2.00403e-06
 Reference value :  2.00458e-06
 Reference value :  2.00582e-06
 Reference value :  2.00711e-06
 Reference value :  2.01061e-06
 Reference value :  2.01401e-06
 Reference value :  2.01671e-06
 Reference value :  2.01909e-06
 Reference value :  2.02345e-06
 Reference value :  2.04282e-06
 Reference value :  2.05356e-06
 Reference value :  2.07387e-06
 Reference value :  2.08861e-06
 Reference value :  2.10956e-06
 Reference value :  2.23683e-06
 Reference value :  2.25013e-06
 Reference value :  2.25021e-06
 Reference value :  2.25045e-06
 Reference value :  2.25106e-06
 Reference value :  2.25202e-06
 Reference value :  2.25401e-06
 Reference value :  2.25533e-06
 Reference value :  2.25791e-06
 Reference value :  2.27140e-06
 Reference value :  2.38988e-06
 Reference value :  2.50003e-06
 Reference value :  2.50011e-06
 Reference value :  2.50022e-06
 Reference value :  2.50086e-06
 Reference value :  2.50177e-06
 Reference value :  2.50270e-06
 Reference value :  2.50485e-06
 Reference value :  2.50674e-06
 Reference value :  2.50842e-06
 Reference value :  2.51157e-06
 Reference value :  2.52086e-06
 Reference value :  2.72204e-06
 Reference value :  2.75017e-06
 Reference value :  2.75026e-06
 Reference value :  2.75106e-06
 Reference value :  2.75254e-06
 Reference value :  2.75465e-06
 Reference value :  2.75697e-06
 Reference value :  2.75996e-06
 Reference value :  2.76551e-06
 Reference value :  2.79877e-06
 Reference value :  2.85810e-06
 Reference value :  3.00003e-06
 Reference value :  3.00012e-06
 Reference value :  3.00035e-06
 Reference value :  3.00130e-06
 Reference value :  3.00224e-06
 Reference value :  3.00403e-06
 Reference value :  3.00457e-06
 Reference value :  3.00583e-06
 Reference value :  3.00644e-06
 Reference value :  3.00901e-06
 Reference value :  3.01145e-06
 Reference value :  3.01377e-06
 Reference value :  3.01613e-06
 Reference value :  3.01838e-06
 Reference value :  3.02092e-06
 Reference value :  3.02683e-06
 Reference value :  3.05294e-06
 Reference value :  3.08241e-06
 Reference value :  3.09610e-06
 Reference value :  3.10768e-06
 Reference value :  3.12352e-06
 Reference value :  3.20218e-06
 Reference value :  3.25013e-06
 Reference value :  3.25032e-06
 Reference value :  3.25203e-06
 Reference value :  3.25467e-06
 Reference value :  3.25785e-06
 Reference value :  3.29930e-06
 Reference value :  3.50003e-06
 Reference value :  3.50022e-06
 Reference value :  3.50130e-06
 Reference value :  3.50277e-06
 Reference value :  3.50463e-06
 Reference value :  3.50730e-06
 Reference value :  3.50925e-06
 Reference value :  3.51236e-06
 Reference value :  3.53093e-06
 Reference value :  3.75010e-06
 Reference value :  3.75017e-06
 Reference value :  3.75026e-06
 Reference value :  3.75106e-06
 Reference value :  3.75203e-06
 Reference value :  3.75406e-06
 Reference value :  3.75538e-06
 Reference value :  3.75697e-06
 Reference value :  3.75965e-06
 Reference value :  3.77129e-06
 Reference value :  3.83119e-06
 Reference value :  4.00000e-06
 Reference value :  4.00007e-06
 Reference value :  4.00012e-06
 Reference value :  4.00035e-06
 Reference value :  4.00130e-06
 Reference value :  4.00224e-06
 Reference value :  4.00403e-06
 Reference value :  4.00520e-06
 Reference value :  4.00643e-06
 Reference value :  4.01062e-06
 Reference value :  4.01402e-06
 Reference value :  4.01670e-06
 Reference value :  4.01908e-06
 Reference value :  4.02344e-06
 Reference value :  4.03309e-06
 Reference value :  4.03598e-06
 Reference value :  4.04301e-06
 Reference value :  4.05102e-06
 Reference value :  4.06065e-06
 Reference value :  4.09482e-06
 Reference value :  4.25010e-06
 Reference value :  4.25017e-06
 Reference value :  4.25022e-06
 Reference value :  4.25045e-06
 Reference value :  4.25153e-06
 Reference value :  4.25256e-06
 Reference value :  4.25402e-06
 Reference value :  4.25468e-06
 Reference value :  4.25606e-06
 Reference value :  4.25813e-06
 Reference value :  4.26604e-06
 Reference value :  4.30286e-06
 Reference value :  4.48605e-06
 Reference value :  4.50003e-06
 Reference value :  4.50011e-06
 Reference value :  4.50022e-06
 Reference value :  4.50052e-06
 Reference value :  4.50130e-06
 Reference value :  4.50221e-06
 Reference value :  4.50405e-06
 Reference value :  4.50674e-06
 Reference value :  4.50753e-06
 Reference value :  4.50946e-06
 Reference value :  4.51157e-06
 Reference value :  4.51411e-06
 Reference value :  4.52843e-06
 Reference value :  4.61704e-06
 Reference value :  4.75011e-06
 Reference value :  4.75020e-06
 Reference value :  4.75026e-06
 Reference value :  4.75070e-06
 Reference value :  4.75152e-06
 Reference value :  4.75202e-06
 Reference value :  4.75325e-06
 Reference value :  4.75464e-06
 Reference value :  4.75604e-06
 Reference value :  4.75696e-06
 Reference value :  4.75884e-06
 Reference value :  4.76125e-06
 Reference value :  4.76905e-06
 Reference value :  4.79874e-06
 Reference value :  4.91729e-06
 Reference value :  5.00003e-06
 Reference value :  5.00011e-06
 Reference value :  5.00035e-06
 Reference value :  5.00130e-06
 Reference value :  5.00224e-06
 Reference value :  5.00340e-06
 Reference value :  5.00457e-06
 Reference value :  5.00583e-06
 Reference value :  5.00712e-06
 Reference value :  5.00901e-06
 Reference value :  5.01146e-06
 Reference value :  5.01378e-06
 Reference value :  5.01619e-06
 Reference value :  5.01849e-06
 Reference value :  5.02112e-06
 Reference value :  5.02763e-06
 Reference value :  5.05139e-06
 Reference value :  5.09826e-06
 Reference value :  5.14359e-06
 Reference value :  5.25010e-06
 Reference value :  5.25017e-06
 Reference value :  5.25026e-06
 Reference value :  5.25070e-06
 Reference value :  5.25203e-06
 Reference value :  5.25405e-06
 Reference value :  5.25533e-06
 Reference value :  5.25688e-06
 Reference value :  5.26174e-06
 Reference value :  5.29867e-06
 Reference value :  5.50000e-06
 Reference value :  5.50007e-06
 Reference value :  5.50016e-06
 Reference value :  5.50052e-06
 Reference value :  5.50130e-06
 Reference value :  5.50221e-06
 Reference value :  5.50332e-06
 Reference value :  5.50485e-06
 Reference value :  5.50674e-06
 Reference value :  5.50754e-06
 Reference value :  5.50947e-06
 Reference value :  5.51277e-06
 Reference value :  5.52079e-06
 Reference value :  5.56674e-06
 Reference value :  5.75010e-06
 Reference value :  5.75017e-06
 Reference value :  5.75022e-06
 Reference value :  5.75045e-06
 Reference value :  5.75105e-06
 Reference value :  5.75202e-06
 Reference value :  5.75403e-06
 Reference value :  5.75532e-06
 Reference value :  5.75694e-06
 Reference value :  5.75882e-06
 Reference value :  5.76315e-06
 Reference value :  5.78373e-06
 Reference value :  5.85747e-06
 Reference value :  6.00001e-06
 Reference value :  6.00007e-06
 Reference value :  6.00011e-06
 Reference value :  6.00022e-06
 Reference value :  6.00130e-06
 Reference value :  6.00224e-06
 Reference value :  6.00403e-06
 Reference value :  6.00457e-06
 Reference value :  6.00583e-06
 Reference value :  6.00712e-06
 Reference value :  6.01047e-06
 Reference value :  6.01146e-06
 Reference value :  6.01378e-06
 Reference value :  6.01623e-06
 Reference value :  6.01853e-06
 Reference value :  6.02132e-06
 Reference value :  6.02509e-06
 Reference value :  6.03447e-06
 Reference value :  6.05090e-06
 Reference value :  6.08469e-06
 Reference value :  6.21648e-06
 Reference value :  6.25013e-06
 Reference value :  6.25020e-06
 Reference value :  6.25026e-06
 Reference value :  6.25070e-06
 Reference value :  6.25153e-06
 Reference value :  6.25256e-06
 Reference value :  6.25404e-06
 Reference value :  6.25533e-06
 Reference value :  6.25688e-06
 Reference value :  6.26510e-06
 Reference value :  6.33041e-06
 Reference value :  6.50001e-06
 Reference value :  6.50010e-06
 Reference value :  6.50022e-06
 Reference value :  6.50086e-06
 Reference value :  6.50177e-06
 Reference value :  6.50270e-06
 Reference value :  6.50485e-06
 Reference value :  6.50674e-06
 Reference value :  6.50843e-06
 Reference value :  6.51278e-06
 Reference value :  6.54207e-06
 Reference value :  6.75011e-06
 Reference value :  6.75021e-06
 Reference value :  6.75045e-06
 Reference value :  6.75152e-06
 Reference value :  6.75325e-06
 Reference value :  6.75464e-06
 Reference value :  6.75694e-06
 Reference value :  6.75994e-06
 Reference value :  6.76900e-06
 Reference value :  6.82119e-06
 Reference value :  7.00000e-06
 Reference value :  7.00007e-06
 Reference value :  7.00012e-06
 Reference value :  7.00035e-06
 Reference value :  7.00130e-06
 Reference value :  7.00224e-06
 Reference value :  7.00340e-06
 Reference value :  7.00457e-06
 Reference value :  7.00583e-06
 Reference value :  7.00712e-06
 Reference value :  7.00902e-06
 Reference value :  7.01146e-06
 Reference value :  7.01379e-06
 Reference value :  7.01625e-06
 Reference value :  7.01866e-06
 Reference value :  7.02137e-06
 Reference value :  7.03403e-06
 Reference value :  7.25010e-06
 Reference value :  7.25020e-06
 Reference value :  7.25045e-06
 Reference value :  7.25203e-06
 Reference value :  7.25465e-06
 Reference value :  7.25688e-06
 Reference value :  7.26510e-06
 Reference value :  7.33023e-06
 Reference value :  7.50000e-06
 Reference value :  7.50007e-06
 Reference value :  7.50012e-06
 Reference value :  7.50035e-06
 Reference value :  7.50130e-06
 Reference value :  7.50221e-06
 Reference value :  7.50405e-06
 Reference value :  7.50674e-06
 Reference value :  7.50754e-06
 Reference value :  7.50947e-06
 Reference value :  7.51158e-06
 Reference value :  7.51412e-06
 Reference value :  7.52829e-06
 Reference value :  7.61471e-06
 Reference value :  7.75011e-06
 Reference value :  7.75020e-06
 Reference value :  7.75032e-06
 Reference value :  7.75105e-06
 Reference value :  7.75201e-06
 Reference value :  7.75403e-06
 Reference value :  7.75531e-06
 Reference value :  7.75693e-06
 Reference value :  7.75994e-06
 Reference value :  7.76542e-06
 Reference value :  7.79850e-06
 Reference value :  8.00003e-06
 Reference value :  8.00016e-06
 Reference value :  8.00086e-06
 Reference value :  8.00176e-06
 Reference value :  8.00340e-06
 Reference value :  8.00457e-06
 Reference value :  8.00583e-06
 Reference value :  8.00644e-06
 Reference value :  8.00902e-06
 Reference value :  8.01171e-06
 Reference value :  8.01835e-06
 Reference value :  8.04536e-06
 Reference value :  8.12637e-06
 Reference value :  8.22599e-06
 Reference value :  8.25020e-06
 Reference value :  8.25070e-06
 Reference value :  8.25202e-06
 Reference value :  8.25421e-06
 Reference value :  8.25723e-06
 Reference value :  8.26282e-06
 Reference value :  8.29391e-06
 Reference value :  8.50000e-06
 Reference value :  8.50000e-06
 Reference value :  8.50001e-06
 Reference value :  8.50010e-06
 Reference value :  8.50018e-06
 Reference value :  8.50128e-06
 Reference value :  8.50303e-06
 Reference value :  8.50443e-06
 Reference value :  8.50570e-06
 Reference value :  8.50706e-06
 Reference value :  8.51132e-06
 Reference value :  8.52878e-06
 Reference value :  8.53373e-06
 Reference value :  8.54106e-06
 Reference value :  8.54607e-06
 Reference value :  8.55155e-06
 Reference value :  8.55545e-06
 Reference value :  8.56034e-06
 Reference value :  8.56566e-06
 Reference value :  8.57702e-06
 Reference value :  8.61187e-06
 Reference value :  8.66305e-06
 Reference value :  8.75010e-06
 Reference value :  8.75020e-06
 Reference value :  8.75032e-06
 Reference value :  8.75105e-06
 Reference value :  8.75256e-06
 Reference value :  8.75467e-06
 Reference value :  8.75696e-06
 Reference value :  8.77141e-06
 Reference value :  8.88555e-06
 Reference value :  8.94502e-06
 Reference value :  9.00003e-06
 Reference value :  9.00016e-06
 Reference value :  9.00130e-06
 Reference value :  9.00333e-06
 Reference value :  9.00565e-06
 Reference value :  9.00995e-06
 Reference value :  9.01277e-06
 Reference value :  9.01588e-06
 Reference value :  9.02556e-06
 Reference value :  9.25010e-06
 Reference value :  9.25021e-06
 Reference value :  9.25045e-06
 Reference value :  9.25153e-06
 Reference value :  9.25256e-06
 Reference value :  9.25405e-06
 Reference value :  9.25535e-06
 Reference value :  9.25697e-06
 Reference value :  9.25979e-06
 Reference value :  9.26474e-06
 Reference value :  9.30178e-06
 Reference value :  9.50001e-06
 Reference value :  9.50012e-06
 Reference value :  9.50086e-06
 Reference value :  9.50224e-06
 Reference value :  9.50403e-06
 Reference value :  9.50583e-06
 Reference value :  9.50900e-06
 Reference value :  9.51144e-06
 Reference value :  9.51377e-06
 Reference value :  9.51611e-06
 Reference value :  9.51836e-06
 Reference value :  9.52084e-06
 Reference value :  9.52658e-06
 Reference value :  9.56634e-06
 Reference value :  9.65313e-06
 Reference value :  9.70003e-06
 Reference value :  9.73489e-06
 Reference value :  9.75013e-06
 Reference value :  9.75022e-06
 Reference value :  9.75045e-06
 Reference value :  9.75153e-06
 Reference value :  9.75203e-06
 Reference value :  9.75328e-06
 Reference value :  9.75466e-06
 Reference value :  9.75689e-06
 Reference value :  9.76514e-06
 Reference value :  9.88486e-06
 Reference value :  1.00000e-05
 Reference value :  1.00002e-05
 Reference value :  1.00013e-05
 Reference value :  1.00028e-05
 Reference value :  1.00046e-05
 Reference value :  1.00083e-05
 Reference value :  1.00112e-05
 Reference value :  1.00503e-05
 Reference value :  1.02502e-05
 Reference value :  1.02504e-05
 Reference value :  1.02515e-05
 Reference value :  1.02526e-05
 Reference value :  1.02541e-05
 Reference value :  1.02554e-05
 Reference value :  1.02579e-05
 Reference value :  1.02715e-05
 Reference value :  1.03847e-05
 Reference value :  1.05000e-05
 Reference value :  1.05001e-05
 Reference value :  1.05005e-05
 Reference value :  1.05013e-05
 Reference value :  1.05022e-05
 Reference value :  1.05040e-05
 Reference value :  1.05046e-05
 Reference value :  1.05058e-05
 Reference value :  1.05080e-05
 Reference value :  1.05126e-05
 Reference value :  1.05154e-05
 Reference value :  1.05191e-05
 Reference value :  1.05234e-05
 Reference value :  1.05531e-05
 Reference value :  1.05707e-05
 Reference value :  1.05881e-05
 Reference value :  1.06189e-05
 Reference value :  1.07501e-05
 Reference value :  1.07502e-05
 Reference value :  1.07507e-05
 Reference value :  1.07520e-05
 Reference value :  1.07546e-05
 Reference value :  1.07569e-05
 Reference value :  1.07618e-05
 Reference value :  1.07990e-05
 Reference value :  1.10000e-05
 Reference value :  1.10001e-05
 Reference value :  1.10002e-05
 Reference value :  1.10003e-05
 Reference value :  1.10009e-05
 Reference value :  1.10013e-05
 Reference value :  1.10022e-05
 Reference value :  1.10033e-05
 Reference value :  1.10049e-05
 Reference value :  1.10067e-05
 Reference value :  1.10075e-05
 Reference value :  1.10095e-05
 Reference value :  1.10116e-05
 Reference value :  1.10141e-05
 Reference value :  1.10420e-05
 Reference value :  1.12501e-05
 Reference value :  1.12502e-05
 Reference value :  1.12503e-05
 Reference value :  1.12507e-05
 Reference value :  1.12515e-05
 Reference value :  1.12525e-05
 Reference value :  1.12546e-05
 Reference value :  1.12569e-05
 Reference value :  1.12588e-05
 Reference value :  1.12632e-05
 Reference value :  1.12839e-05
 Reference value :  1.14174e-05
 Reference value :  1.15000e-05
 Reference value :  1.15001e-05
 Reference value :  1.15003e-05
 Reference value :  1.15013e-05
 Reference value :  1.15028e-05
 Reference value :  1.15046e-05
 Reference value :  1.15058e-05
 Reference value :  1.15080e-05
 Reference value :  1.15115e-05
 Reference value :  1.15138e-05
 Reference value :  1.15173e-05
 Reference value :  1.15211e-05
 Reference value :  1.15399e-05
 Reference value :  1.15808e-05
 Reference value :  1.15942e-05
 Reference value :  1.16056e-05
 Reference value :  1.16160e-05
 Reference value :  1.16429e-05
 Reference value :  1.16952e-05
 Reference value :  1.17501e-05
 Reference value :  1.17502e-05
 Reference value :  1.17503e-05
 Reference value :  1.17511e-05
 Reference value :  1.17520e-05
 Reference value :  1.17533e-05
 Reference value :  1.17547e-05
 Reference value :  1.17560e-05
 Reference value :  1.17569e-05
 Reference value :  1.17596e-05
 Reference value :  1.17709e-05
 Reference value :  1.18303e-05
 Reference value :  1.20000e-05
 Reference value :  1.20000e-05
 Reference value :  1.20001e-05
 Reference value :  1.20001e-05
 Reference value :  1.20002e-05
 Reference value :  1.20003e-05
 Reference value :  1.20009e-05
 Reference value :  1.20013e-05
 Reference value :  1.20022e-05
 Reference value :  1.20034e-05
 Reference value :  1.20046e-05
 Reference value :  1.20063e-05
 Reference value :  1.20073e-05
 Reference value :  1.20083e-05
 Reference value :  1.20102e-05
 Reference value :  1.20124e-05
 Reference value :  1.20212e-05
 Reference value :  1.20891e-05
 Reference value :  1.22501e-05
 Reference value :  1.22502e-05
 Reference value :  1.22502e-05
 Reference value :  1.22504e-05
 Reference value :  1.22515e-05
 Reference value :  1.22526e-05
 Reference value :  1.22541e-05
 Reference value :  1.22554e-05
 Reference value :  1.22579e-05
 Reference value :  1.22655e-05
 Reference value :  1.22998e-05
 Reference value :  1.24779e-05
 Reference value :  1.25000e-05
 Reference value :  1.25001e-05
 Reference value :  1.25003e-05
 Reference value :  1.25013e-05
 Reference value :  1.25022e-05
 Reference value :  1.25040e-05
 Reference value :  1.25052e-05
 Reference value :  1.25064e-05
 Reference value :  1.25090e-05
 Reference value :  1.25126e-05
 Reference value :  1.25140e-05
 Reference value :  1.25154e-05
 Reference value :  1.25180e-05
 Reference value :  1.25203e-05
 Reference value :  1.25234e-05
 Reference value :  1.25328e-05
 Reference value :  1.25403e-05
 Reference value :  1.25461e-05
 Reference value :  1.25525e-05
 Reference value :  1.25647e-05
 Reference value :  1.25859e-05
 Reference value :  1.26643e-05
 Reference value :  1.27501e-05
 Reference value :  1.27502e-05
 Reference value :  1.27502e-05
 Reference value :  1.27504e-05
 Reference value :  1.27511e-05
 Reference value :  1.27520e-05
 Reference value :  1.27533e-05
 Reference value :  1.27546e-05
 Reference value :  1.27560e-05
 Reference value :  1.27578e-05
 Reference value :  1.27652e-05
 Reference value :  1.27990e-05
 Reference value :  1.29967e-05
 Reference value :  1.30000e-05
 Reference value :  1.30001e-05
 Reference value :  1.30001e-05
 Reference value :  1.30002e-05
 Reference value :  1.30009e-05
 Reference value :  1.30018e-05
 Reference value :  1.30027e-05
 Reference value :  1.30041e-05
 Reference value :  1.30056e-05
 Reference value :  1.30075e-05
 Reference value :  1.30095e-05
 Reference value :  1.30116e-05
 Reference value :  1.30128e-05
 Reference value :  1.30207e-05
 Reference value :  1.30663e-05
 Reference value :  1.32501e-05
 Reference value :  1.32502e-05
 Reference value :  1.32502e-05
 Reference value :  1.32503e-05
 Reference value :  1.32507e-05
 Reference value :  1.32515e-05
 Reference value :  1.32520e-05
 Reference value :  1.32533e-05
 Reference value :  1.32546e-05
 Reference value :  1.32560e-05
 Reference value :  1.32579e-05
 Reference value :  1.32599e-05
 Reference value :  1.32632e-05
 Reference value :  1.32752e-05
 Reference value :  1.33216e-05
 Reference value :  1.35000e-05
 Reference value :  1.35000e-05
 Reference value :  1.35001e-05
 Reference value :  1.35002e-05
 Reference value :  1.35003e-05
 Reference value :  1.35009e-05
 Reference value :  1.35013e-05
 Reference value :  1.35022e-05
 Reference value :  1.35040e-05
 Reference value :  1.35046e-05
 Reference value :  1.35058e-05
 Reference value :  1.35071e-05
 Reference value :  1.35090e-05
 Reference value :  1.35115e-05
 Reference value :  1.35138e-05
 Reference value :  1.35162e-05
 Reference value :  1.35173e-05
 Reference value :  1.35185e-05
 Reference value :  1.35211e-05
 Reference value :  1.35248e-05
 Reference value :  1.35333e-05
 Reference value :  1.35668e-05
 Reference value :  1.35979e-05
 Reference value :  1.36405e-05
 Reference value :  1.36747e-05
 Reference value :  1.37501e-05
 Reference value :  1.37501e-05
 Reference value :  1.37502e-05
 Reference value :  1.37503e-05
 Reference value :  1.37507e-05
 Reference value :  1.37515e-05
 Reference value :  1.37526e-05
 Reference value :  1.37540e-05
 Reference value :  1.37546e-05
 Reference value :  1.37569e-05
 Reference value :  1.37617e-05
 Reference value :  1.37984e-05
 Reference value :  1.40000e-05
 Reference value :  1.40001e-05
 Reference value :  1.40002e-05
 Reference value :  1.40005e-05
 Reference value :  1.40013e-05
 Reference value :  1.40022e-05
 Reference value :  1.40041e-05
 Reference value :  1.40056e-05
 Reference value :  1.40075e-05
 Reference value :  1.40095e-05
 Reference value :  1.40128e-05
 Reference value :  1.40283e-05
 Reference value :  1.42501e-05
 Reference value :  1.42502e-05
 Reference value :  1.42504e-05
 Reference value :  1.42515e-05
 Reference value :  1.42533e-05
 Reference value :  1.42546e-05
 Reference value :  1.42569e-05
 Reference value :  1.42588e-05
 Reference value :  1.42612e-05
 Reference value :  1.42690e-05
 Reference value :  1.43212e-05
 Reference value :  1.45000e-05
 Reference value :  1.45001e-05
 Reference value :  1.45002e-05
 Reference value :  1.45005e-05
 Reference value :  1.45013e-05
 Reference value :  1.45028e-05
 Reference value :  1.45046e-05
 Reference value :  1.45058e-05
 Reference value :  1.45080e-05
 Reference value :  1.45115e-05
 Reference value :  1.45138e-05
 Reference value :  1.45174e-05
 Reference value :  1.45213e-05
 Reference value :  1.45345e-05
 Reference value :  1.45844e-05
 Reference value :  1.47501e-05
 Reference value :  1.47502e-05
 Reference value :  1.47502e-05
 Reference value :  1.47507e-05
 Reference value :  1.47520e-05
 Reference value :  1.47540e-05
 Reference value :  1.47553e-05
 Reference value :  1.47569e-05
 Reference value :  1.47617e-05
 Reference value :  1.47985e-05
 Reference value :  1.49940e-05
 Reference value :  1.50000e-05
 Reference value :  1.50001e-05
 Reference value :  1.50002e-05
 Reference value :  1.50005e-05
 Reference value :  1.50013e-05
 Reference value :  1.50022e-05
 Reference value :  1.50041e-05
 Reference value :  1.50056e-05
 Reference value :  1.50075e-05
 Reference value :  1.50095e-05
 Reference value :  1.50116e-05
 Reference value :  1.50141e-05
 Reference value :  1.50419e-05
 Reference value :  1.52501e-05
 Reference value :  1.52502e-05
 Reference value :  1.52503e-05
 Reference value :  1.52507e-05
 Reference value :  1.52515e-05
 Reference value :  1.52525e-05
 Reference value :  1.52540e-05
 Reference value :  1.52553e-05
 Reference value :  1.52569e-05
 Reference value :  1.52588e-05
 Reference value :  1.52632e-05
 Reference value :  1.52837e-05
 Reference value :  1.54162e-05
 Reference value :  1.55013e-05
 Reference value :  1.55053e-05
 Reference value :  1.55077e-05
 Reference value :  1.55115e-05
 Reference value :  1.55138e-05
 Reference value :  1.55159e-05
 Reference value :  1.55177e-05
 Reference value :  1.55198e-05
 Reference value :  1.55243e-05
 Reference value :  1.55460e-05
 Reference value :  1.57162e-05
 Reference value :  1.57501e-05
 Reference value :  1.57502e-05
 Reference value :  1.57503e-05
 Reference value :  1.57511e-05
 Reference value :  1.57520e-05
 Reference value :  1.57533e-05
 Reference value :  1.57546e-05
 Reference value :  1.57560e-05
 Reference value :  1.57578e-05
 Reference value :  1.57650e-05
 Reference value :  1.57982e-05
 Reference value :  1.59978e-05
 Reference value :  1.60000e-05
 Reference value :  1.60001e-05
 Reference value :  1.60002e-05
 Reference value :  1.60009e-05
 Reference value :  1.60018e-05
 Reference value :  1.60027e-05
 Reference value :  1.60049e-05
 Reference value :  1.60067e-05
 Reference value :  1.60075e-05
 Reference value :  1.60095e-05
 Reference value :  1.60128e-05
 Reference value :  1.60207e-05
 Reference value :  1.61151e-05
 Reference value :  1.62502e-05
 Reference value :  1.62503e-05
 Reference value :  1.62515e-05
 Reference value :  1.62525e-05
 Reference value :  1.62546e-05
 Reference value :  1.62570e-05
 Reference value :  1.62600e-05
 Reference value :  1.62655e-05
 Reference value :  1.62840e-05
 Reference value :  1.63588e-05
 Reference value :  1.65000e-05
 Reference value :  1.65001e-05
 Reference value :  1.65002e-05
 Reference value :  1.65005e-05
 Reference value :  1.65018e-05
 Reference value :  1.65022e-05
 Reference value :  1.65040e-05
 Reference value :  1.65046e-05
 Reference value :  1.65058e-05
 Reference value :  1.65064e-05
 Reference value :  1.65080e-05
 Reference value :  1.65100e-05
 Reference value :  1.65117e-05
 Reference value :  1.65163e-05
 Reference value :  1.65234e-05
 Reference value :  1.65444e-05
 Reference value :  1.65611e-05
 Reference value :  1.65906e-05
 Reference value :  1.66384e-05
 Reference value :  1.67501e-05
 Reference value :  1.67501e-05
 Reference value :  1.67502e-05
 Reference value :  1.67503e-05
 Reference value :  1.67507e-05
 Reference value :  1.67520e-05
 Reference value :  1.67542e-05
 Reference value :  1.67572e-05
 Reference value :  1.67628e-05
 Reference value :  1.68157e-05
 Reference value :  1.70000e-05
 Reference value :  1.70000e-05
 Reference value :  1.70000e-05
 Reference value :  1.70000e-05
 Reference value :  1.70001e-05
 Reference value :  1.70001e-05
 Reference value :  1.70003e-05
 Reference value :  1.70013e-05
 Reference value :  1.70024e-05
 Reference value :  1.70037e-05
 Reference value :  1.70051e-05
 Reference value :  1.70057e-05
 Reference value :  1.70071e-05
 Reference value :  1.70113e-05
 Reference value :  1.70221e-05
 Reference value :  1.70288e-05
 Reference value :  1.70337e-05
 Reference value :  1.70374e-05
 Reference value :  1.70407e-05
 Reference value :  1.70453e-05
 Reference value :  1.70497e-05
 Reference value :  1.70523e-05
 Reference value :  1.70550e-05
 Reference value :  1.70612e-05
 Reference value :  1.70683e-05
 Reference value :  1.70775e-05
 Reference value :  1.70997e-05
 Reference value :  1.71427e-05
 Reference value :  1.72501e-05
 Reference value :  1.72502e-05
 Reference value :  1.72504e-05
 Reference value :  1.72511e-05
 Reference value :  1.72520e-05
 Reference value :  1.72540e-05
 Reference value :  1.72560e-05
 Reference value :  1.72595e-05
 Reference value :  1.72989e-05
 Reference value :  1.74430e-05
 Reference value :  1.74923e-05
 Reference value :  1.75000e-05
 Reference value :  1.75001e-05
 Reference value :  1.75003e-05
 Reference value :  1.75013e-05
 Reference value :  1.75022e-05
 Reference value :  1.75041e-05
 Reference value :  1.75068e-05
 Reference value :  1.75113e-05
 Reference value :  1.75144e-05
 Reference value :  1.75175e-05
 Reference value :  1.75218e-05
 Reference value :  1.75414e-05
 Reference value :  1.76679e-05
 Reference value :  1.77501e-05
 Reference value :  1.77502e-05
 Reference value :  1.77503e-05
 Reference value :  1.77507e-05
 Reference value :  1.77515e-05
 Reference value :  1.77526e-05
 Reference value :  1.77540e-05
 Reference value :  1.77554e-05
 Reference value :  1.77570e-05
 Reference value :  1.77598e-05
 Reference value :  1.77648e-05
 Reference value :  1.77884e-05
 Reference value :  1.78964e-05
 Reference value :  1.80007e-05
 Reference value :  1.80026e-05
 Reference value :  1.80039e-05
 Reference value :  1.80052e-05
 Reference value :  1.80065e-05
 Reference value :  1.80106e-05
 Reference value :  1.80128e-05
 Reference value :  1.80152e-05
 Reference value :  1.80174e-05
 Reference value :  1.80198e-05
 Reference value :  1.80227e-05
 Reference value :  1.80414e-05
 Reference value :  1.81754e-05
 Reference value :  1.82143e-05
 Reference value :  1.82369e-05
 Reference value :  1.82501e-05
 Reference value :  1.82502e-05
 Reference value :  1.82507e-05
 Reference value :  1.82520e-05
 Reference value :  1.82541e-05
 Reference value :  1.82554e-05
 Reference value :  1.82569e-05
 Reference value :  1.82618e-05
 Reference value :  1.82814e-05
 Reference value :  1.83850e-05
 Reference value :  1.85000e-05
 Reference value :  1.85001e-05
 Reference value :  1.85002e-05
 Reference value :  1.85013e-05
 Reference value :  1.85022e-05
 Reference value :  1.85040e-05
 Reference value :  1.85046e-05
 Reference value :  1.85063e-05
 Reference value :  1.85083e-05
 Reference value :  1.85102e-05
 Reference value :  1.85124e-05
 Reference value :  1.85309e-05
 Reference value :  1.86667e-05
 Reference value :  1.87501e-05
 Reference value :  1.87502e-05
 Reference value :  1.87503e-05
 Reference value :  1.87511e-05
 Reference value :  1.87520e-05
 Reference value :  1.87541e-05
 Reference value :  1.87554e-05
 Reference value :  1.87570e-05
 Reference value :  1.87655e-05
 Reference value :  1.88310e-05
 Reference value :  1.90000e-05
 Reference value :  1.90001e-05
 Reference value :  1.90002e-05
 Reference value :  1.90013e-05
 Reference value :  1.90022e-05
 Reference value :  1.90040e-05
 Reference value :  1.90046e-05
 Reference value :  1.90058e-05
 Reference value :  1.90071e-05
 Reference value :  1.90106e-05
 Reference value :  1.90140e-05
 Reference value :  1.90167e-05
 Reference value :  1.90191e-05
 Reference value :  1.90234e-05
 Reference value :  1.90428e-05
 Reference value :  1.90527e-05
 Reference value :  1.90695e-05
 Reference value :  1.90811e-05
 Reference value :  1.90924e-05
 Reference value :  1.91144e-05
 Reference value :  1.92128e-05
 Reference value :  1.92501e-05
 Reference value :  1.92502e-05
 Reference value :  1.92504e-05
 Reference value :  1.92515e-05
 Reference value :  1.92533e-05
 Reference value :  1.92546e-05
 Reference value :  1.92569e-05
 Reference value :  1.92618e-05
 Reference value :  1.92990e-05
 Reference value :  1.95000e-05
 Reference value :  1.95001e-05
 Reference value :  1.95001e-05
 Reference value :  1.95006e-05
 Reference value :  1.95020e-05
 Reference value :  1.95037e-05
 Reference value :  1.95050e-05
 Reference value :  1.95059e-05
 Reference value :  1.95076e-05
 Reference value :  1.95095e-05
 Reference value :  1.95116e-05
 Reference value :  1.95142e-05
 Reference value :  1.95400e-05
 Reference value :  1.97501e-05
 Reference value :  1.97502e-05
 Reference value :  1.97503e-05
 Reference value :  1.97507e-05
 Reference value :  1.97520e-05
 Reference value :  1.97540e-05
 Reference value :  1.97560e-05
 Reference value :  1.97599e-05
 Reference value :  1.97752e-05
 Reference value :  2.00000e-05
 Reference value :  2.00001e-05
 Reference value :  2.00013e-05
 Reference value :  2.00034e-05
 Reference value :  2.00052e-05
 Reference value :  2.00064e-05
 Reference value :  2.00105e-05
 Reference value :  2.00126e-05
 Reference value :  2.00151e-05
 Reference value :  2.00185e-05
 Reference value :  2.00247e-05
 Reference value :  2.00523e-05
 Reference value :  2.00806e-05
 Reference value :  2.00939e-05
 Reference value :  2.01100e-05
 Reference value :  2.01288e-05
 Reference value :  2.01880e-05
 Reference value :  2.02501e-05
 Reference value :  2.02502e-05
 Reference value :  2.02507e-05
 Reference value :  2.02520e-05
 Reference value :  2.02533e-05
 Reference value :  2.02547e-05
 Reference value :  2.02569e-05
 Reference value :  2.02618e-05
 Reference value :  2.03303e-05
 Reference value :  2.05003e-05
 Reference value :  2.05012e-05
 Reference value :  2.05019e-05
 Reference value :  2.05035e-05
 Reference value :  2.05056e-05
 Reference value :  2.05075e-05
 Reference value :  2.05093e-05
 Reference value :  2.05126e-05
 Reference value :  2.05436e-05
 Reference value :  2.07501e-05
 Reference value :  2.07502e-05
 Reference value :  2.07507e-05
 Reference value :  2.07520e-05
 Reference value :  2.07547e-05
 Reference value :  2.07579e-05
 Reference value :  2.07821e-05
 Reference value :  2.09774e-05
 Reference value :  2.10001e-05
 Reference value :  2.10002e-05
 Reference value :  2.10005e-05
 Reference value :  2.10013e-05
 Reference value :  2.10028e-05
 Reference value :  2.10046e-05
 Reference value :  2.10058e-05
 Reference value :  2.10080e-05
 Reference value :  2.10140e-05
 Reference value :  2.10167e-05
 Reference value :  2.10191e-05
 Reference value :  2.10234e-05
 Reference value :  2.10364e-05
 Reference value :  2.10445e-05
 Reference value :  2.10508e-05
 Reference value :  2.10655e-05
 Reference value :  2.10997e-05
 Reference value :  2.12163e-05
 Reference value :  2.12501e-05
 Reference value :  2.12502e-05
 Reference value :  2.12504e-05
 Reference value :  2.12515e-05
 Reference value :  2.12525e-05
 Reference value :  2.12540e-05
 Reference value :  2.12553e-05
 Reference value :  2.12569e-05
 Reference value :  2.12618e-05
 Reference value :  2.12815e-05
 Reference value :  2.14966e-05
 Reference value :  2.15001e-05
 Reference value :  2.15001e-05
 Reference value :  2.15003e-05
 Reference value :  2.15013e-05
 Reference value :  2.15022e-05
 Reference value :  2.15033e-05
 Reference value :  2.15049e-05
 Reference value :  2.15067e-05
 Reference value :  2.15075e-05
 Reference value :  2.15095e-05
 Reference value :  2.15116e-05
 Reference value :  2.15168e-05
 Reference value :  2.15662e-05
 Reference value :  2.17501e-05
 Reference value :  2.17501e-05
 Reference value :  2.17502e-05
 Reference value :  2.17504e-05
 Reference value :  2.17511e-05
 Reference value :  2.17520e-05
 Reference value :  2.17540e-05
 Reference value :  2.17553e-05
 Reference value :  2.17569e-05
 Reference value :  2.17588e-05
 Reference value :  2.17632e-05
 Reference value :  2.17752e-05
 Reference value :  2.18216e-05
 Reference value :  2.20000e-05
 Reference value :  2.20013e-05
 Reference value :  2.20053e-05
 Reference value :  2.20076e-05
 Reference value :  2.20113e-05
 Reference value :  2.20139e-05
 Reference value :  2.20161e-05
 Reference value :  2.20180e-05
 Reference value :  2.20201e-05
 Reference value :  2.20248e-05
 Reference value :  2.20418e-05
 Reference value :  2.20675e-05
 Reference value :  2.21477e-05
 Reference value :  2.22016e-05
 Reference value :  2.22501e-05
 Reference value :  2.22502e-05
 Reference value :  2.22507e-05
 Reference value :  2.22520e-05
 Reference value :  2.22540e-05
 Reference value :  2.22560e-05
 Reference value :  2.22616e-05
 Reference value :  2.23872e-05
 Reference value :  2.25001e-05
 Reference value :  2.25003e-05
 Reference value :  2.25013e-05
 Reference value :  2.25022e-05
 Reference value :  2.25041e-05
 Reference value :  2.25067e-05
 Reference value :  2.25075e-05
 Reference value :  2.25095e-05
 Reference value :  2.25128e-05
 Reference value :  2.25283e-05
 Reference value :  2.27122e-05
 Reference value :  2.27501e-05
 Reference value :  2.27502e-05
 Reference value :  2.27504e-05
 Reference value :  2.27511e-05
 Reference value :  2.27520e-05
 Reference value :  2.27540e-05
 Reference value :  2.27560e-05
 Reference value :  2.27588e-05
 Reference value :  2.27655e-05
 Reference value :  2.27988e-05
 Reference value :  2.30013e-05
 Reference value :  2.30053e-05
 Reference value :  2.30075e-05
 Reference value :  2.30113e-05
 Reference value :  2.30140e-05
 Reference value :  2.30162e-05
 Reference value :  2.30193e-05
 Reference value :  2.30232e-05
 Reference value :  2.30428e-05
 Reference value :  2.31093e-05
 Reference value :  2.32501e-05
 Reference value :  2.32502e-05
 Reference value :  2.32503e-05
 Reference value :  2.32511e-05
 Reference value :  2.32520e-05
 Reference value :  2.32540e-05
 Reference value :  2.32553e-05
 Reference value :  2.32568e-05
 Reference value :  2.32650e-05
 Reference value :  2.33873e-05
 Reference value :  2.35001e-05
 Reference value :  2.35003e-05
 Reference value :  2.35013e-05
 Reference value :  2.35022e-05
 Reference value :  2.35041e-05
 Reference value :  2.35056e-05
 Reference value :  2.35075e-05
 Reference value :  2.35095e-05
 Reference value :  2.35128e-05
 Reference value :  2.35283e-05
 Reference value :  2.36145e-05
 Reference value :  2.37501e-05
 Reference value :  2.37502e-05
 Reference value :  2.37503e-05
 Reference value :  2.37511e-05
 Reference value :  2.37520e-05
 Reference value :  2.37533e-05
 Reference value :  2.37546e-05
 Reference value :  2.37569e-05
 Reference value :  2.37599e-05
 Reference value :  2.37654e-05
 Reference value :  2.37986e-05
 Reference value :  2.40000e-05
 Reference value :  2.40001e-05
 Reference value :  2.40002e-05
 Reference value :  2.40013e-05
 Reference value :  2.40022e-05
 Reference value :  2.40040e-05
 Reference value :  2.40052e-05
 Reference value :  2.40064e-05
 Reference value :  2.40090e-05
 Reference value :  2.40115e-05
 Reference value :  2.40138e-05
 Reference value :  2.40162e-05
 Reference value :  2.40187e-05
 Reference value :  2.40229e-05
 Reference value :  2.40410e-05
 Reference value :  2.41926e-05
 Reference value :  2.42501e-05
 Reference value :  2.42502e-05
 Reference value :  2.42504e-05
 Reference value :  2.42515e-05
 Reference value :  2.42533e-05
 Reference value :  2.42546e-05
 Reference value :  2.42569e-05
 Reference value :  2.42651e-05
 Reference value :  2.43850e-05
 Reference value :  2.45000e-05
 Reference value :  2.45001e-05
 Reference value :  2.45003e-05
 Reference value :  2.45013e-05
 Reference value :  2.45022e-05
 Reference value :  2.45041e-05
 Reference value :  2.45067e-05
 Reference value :  2.45075e-05
 Reference value :  2.45095e-05
 Reference value :  2.45128e-05
 Reference value :  2.45283e-05
 Reference value :  2.46145e-05
 Reference value :  2.47501e-05
 Reference value :  2.47502e-05
 Reference value :  2.47504e-05
 Reference value :  2.47520e-05
 Reference value :  2.47540e-05
 Reference value :  2.47546e-05
 Reference value :  2.47569e-05
 Reference value :  2.47599e-05
 Reference value :  2.47690e-05
 Reference value :  2.49163e-05
 Reference value :  2.50001e-05
 Reference value :  2.50003e-05
 Reference value :  2.50013e-05
 Reference value :  2.50022e-05
 Reference value :  2.50046e-05
 Reference value :  2.50058e-05
 Reference value :  2.50071e-05
 Reference value :  2.50100e-05
 Reference value :  2.50117e-05
 Reference value :  2.50139e-05
 Reference value :  2.50184e-05
 Reference value :  2.50273e-05
 Reference value :  2.50358e-05
 Reference value :  2.50488e-05
 Reference value :  2.50621e-05
 Reference value :  2.51194e-05
 Reference value :  2.52501e-05
 Reference value :  2.52502e-05
 Reference value :  2.52503e-05
 Reference value :  2.52515e-05
 Reference value :  2.52526e-05
 Reference value :  2.52543e-05
 Reference value :  2.52561e-05
 Reference value :  2.52603e-05
 Reference value :  2.52808e-05
 Reference value :  2.53578e-05
 Reference value :  2.55000e-05
 Reference value :  2.55000e-05
 Reference value :  2.55000e-05
 Reference value :  2.55001e-05
 Reference value :  2.55001e-05
 Reference value :  2.55002e-05
 Reference value :  2.55008e-05
 Reference value :  2.55019e-05
 Reference value :  2.55030e-05
 Reference value :  2.55044e-05
 Reference value :  2.55057e-05
 Reference value :  2.55071e-05
 Reference value :  2.55151e-05
 Reference value :  2.55288e-05
 Reference value :  2.55337e-05
 Reference value :  2.55374e-05
 Reference value :  2.55436e-05
 Reference value :  2.55479e-05
 Reference value :  2.55525e-05
 Reference value :  2.55629e-05
 Reference value :  2.55765e-05
 Reference value :  2.56153e-05
 Reference value :  2.56669e-05
 Reference value :  2.57501e-05
 Reference value :  2.57502e-05
 Reference value :  2.57502e-05
 Reference value :  2.57504e-05
 Reference value :  2.57515e-05
 Reference value :  2.57520e-05
 Reference value :  2.57533e-05
 Reference value :  2.57547e-05
 Reference value :  2.57570e-05
 Reference value :  2.57655e-05
 Reference value :  2.58317e-05
 Reference value :  2.59448e-05
 Reference value :  2.59936e-05
 Reference value :  2.60000e-05
 Reference value :  2.60001e-05
 Reference value :  2.60002e-05
 Reference value :  2.60009e-05
 Reference value :  2.60018e-05
 Reference value :  2.60027e-05
 Reference value :  2.60041e-05
 Reference value :  2.60056e-05
 Reference value :  2.60081e-05
 Reference value :  2.60113e-05
 Reference value :  2.60144e-05
 Reference value :  2.60175e-05
 Reference value :  2.60218e-05
 Reference value :  2.60596e-05
 Reference value :  2.62501e-05
 Reference value :  2.62502e-05
 Reference value :  2.62503e-05
 Reference value :  2.62511e-05
 Reference value :  2.62520e-05
 Reference value :  2.62540e-05
 Reference value :  2.62554e-05
 Reference value :  2.62579e-05
 Reference value :  2.62598e-05
 Reference value :  2.62648e-05
 Reference value :  2.62788e-05
 Reference value :  2.63223e-05
 Reference value :  2.65000e-05
 Reference value :  2.65007e-05
 Reference value :  2.65026e-05
 Reference value :  2.65039e-05
 Reference value :  2.65052e-05
 Reference value :  2.65065e-05
 Reference value :  2.65080e-05
 Reference value :  2.65106e-05
 Reference value :  2.65116e-05
 Reference value :  2.65140e-05
 Reference value :  2.65163e-05
 Reference value :  2.65186e-05
 Reference value :  2.65212e-05
 Reference value :  2.65276e-05
 Reference value :  2.65550e-05
 Reference value :  2.66728e-05
 Reference value :  2.67124e-05
 Reference value :  2.67350e-05
 Reference value :  2.67501e-05
 Reference value :  2.67502e-05
 Reference value :  2.67503e-05
 Reference value :  2.67504e-05
 Reference value :  2.67511e-05
 Reference value :  2.67520e-05
 Reference value :  2.67533e-05
 Reference value :  2.67547e-05
 Reference value :  2.67569e-05
 Reference value :  2.67618e-05
 Reference value :  2.67987e-05
 Reference value :  2.69831e-05
 Reference value :  2.70000e-05
 Reference value :  2.70001e-05
 Reference value :  2.70003e-05
 Reference value :  2.70013e-05
 Reference value :  2.70022e-05
 Reference value :  2.70034e-05
 Reference value :  2.70046e-05
 Reference value :  2.70063e-05
 Reference value :  2.70073e-05
 Reference value :  2.70083e-05
 Reference value :  2.70102e-05
 Reference value :  2.70124e-05
 Reference value :  2.70212e-05
 Reference value :  2.70891e-05
 Reference value :  2.72501e-05
 Reference value :  2.72502e-05
 Reference value :  2.72503e-05
 Reference value :  2.72504e-05
 Reference value :  2.72515e-05
 Reference value :  2.72526e-05
 Reference value :  2.72541e-05
 Reference value :  2.72554e-05
 Reference value :  2.72579e-05
 Reference value :  2.72655e-05
 Reference value :  2.72998e-05
 Reference value :  2.74779e-05
 Reference value :  2.75000e-05
 Reference value :  2.75001e-05
 Reference value :  2.75002e-05
 Reference value :  2.75013e-05
 Reference value :  2.75022e-05
 Reference value :  2.75040e-05
 Reference value :  2.75052e-05
 Reference value :  2.75058e-05
 Reference value :  2.75071e-05
 Reference value :  2.75106e-05
 Reference value :  2.75140e-05
 Reference value :  2.75167e-05
 Reference value :  2.75191e-05
 Reference value :  2.75234e-05
 Reference value :  2.75428e-05
 Reference value :  2.75615e-05
 Reference value :  2.75694e-05
 Reference value :  2.75804e-05
 Reference value :  2.75915e-05
 Reference value :  2.76423e-05
 Reference value :  2.77501e-05
 Reference value :  2.77502e-05
 Reference value :  2.77504e-05
 Reference value :  2.77511e-05
 Reference value :  2.77520e-05
 Reference value :  2.77533e-05
 Reference value :  2.77546e-05
 Reference value :  2.77569e-05
 Reference value :  2.77651e-05
 Reference value :  2.77990e-05
 Reference value :  2.79970e-05
 Reference value :  2.80001e-05
 Reference value :  2.80001e-05
 Reference value :  2.80002e-05
 Reference value :  2.80009e-05
 Reference value :  2.80014e-05
 Reference value :  2.80025e-05
 Reference value :  2.80036e-05
 Reference value :  2.80050e-05
 Reference value :  2.80058e-05
 Reference value :  2.80075e-05
 Reference value :  2.80094e-05
 Reference value :  2.80114e-05
 Reference value :  2.80126e-05
 Reference value :  2.80207e-05
 Reference value :  2.80708e-05
 Reference value :  2.82501e-05
 Reference value :  2.82502e-05
 Reference value :  2.82502e-05
 Reference value :  2.82504e-05
 Reference value :  2.82511e-05
 Reference value :  2.82520e-05
 Reference value :  2.82533e-05
 Reference value :  2.82546e-05
 Reference value :  2.82569e-05
 Reference value :  2.82588e-05
 Reference value :  2.82612e-05
 Reference value :  2.82655e-05
 Reference value :  2.82839e-05
 Reference value :  2.83218e-05
 Reference value :  2.85000e-05
 Reference value :  2.85000e-05
 Reference value :  2.85001e-05
 Reference value :  2.85002e-05
 Reference value :  2.85003e-05
 Reference value :  2.85009e-05
 Reference value :  2.85013e-05
 Reference value :  2.85022e-05
 Reference value :  2.85034e-05
 Reference value :  2.85046e-05
 Reference value :  2.85058e-05
 Reference value :  2.85071e-05
 Reference value :  2.85090e-05
 Reference value :  2.85115e-05
 Reference value :  2.85138e-05
 Reference value :  2.85162e-05
 Reference value :  2.85185e-05
 Reference value :  2.85211e-05
 Reference value :  2.85273e-05
 Reference value :  2.85523e-05
 Reference value :  2.85794e-05
 Reference value :  2.85923e-05
 Reference value :  2.86027e-05
 Reference value :  2.86123e-05
 Reference value :  2.86362e-05
 Reference value :  2.86783e-05
 Reference value :  2.87501e-05
 Reference value :  2.87502e-05
 Reference value :  2.87503e-05
 Reference value :  2.87511e-05
 Reference value :  2.87520e-05
 Reference value :  2.87540e-05
 Reference value :  2.87553e-05
 Reference value :  2.87568e-05
 Reference value :  2.87650e-05
 Reference value :  2.88864e-05
 Reference value :  2.90000e-05
 Reference value :  2.90002e-05
 Reference value :  2.90008e-05
 Reference value :  2.90017e-05
 Reference value :  2.90027e-05
 Reference value :  2.90045e-05
 Reference value :  2.90085e-05
 Reference value :  2.90107e-05
 Reference value :  2.90132e-05
 Reference value :  2.90211e-05
 Reference value :  2.90918e-05
 Reference value :  2.92501e-05
 Reference value :  2.92502e-05
 Reference value :  2.92507e-05
 Reference value :  2.92515e-05
 Reference value :  2.92525e-05
 Reference value :  2.92546e-05
 Reference value :  2.92569e-05
 Reference value :  2.92653e-05
 Reference value :  2.93316e-05
 Reference value :  2.95000e-05
 Reference value :  2.95001e-05
 Reference value :  2.95002e-05
 Reference value :  2.95009e-05
 Reference value :  2.95018e-05
 Reference value :  2.95028e-05
 Reference value :  2.95040e-05
 Reference value :  2.95046e-05
 Reference value :  2.95058e-05
 Reference value :  2.95080e-05
 Reference value :  2.95126e-05
 Reference value :  2.95140e-05
 Reference value :  2.95167e-05
 Reference value :  2.95191e-05
 Reference value :  2.95234e-05
 Reference value :  2.95327e-05
 Reference value :  2.95454e-05
 Reference value :  2.95515e-05
 Reference value :  2.95646e-05
 Reference value :  2.95834e-05
 Reference value :  2.96418e-05
 Reference value :  2.97501e-05
 Reference value :  2.97502e-05
 Reference value :  2.97503e-05
 Reference value :  2.97511e-05
 Reference value :  2.97520e-05
 Reference value :  2.97540e-05
 Reference value :  2.97546e-05
 Reference value :  2.97560e-05
 Reference value :  2.97569e-05
 Reference value :  2.97596e-05
 Reference value :  2.97710e-05
 Reference value :  2.98309e-05
 Reference value :  2.99967e-05
 Reference value :  3.00000e-05
 Reference value :  3.00001e-05
 Reference value :  3.00001e-05
 Reference value :  3.00002e-05
 Reference value :  3.00005e-05
 Reference value :  3.00013e-05
 Reference value :  3.00022e-05
 Reference value :  3.00033e-05
 Reference value :  3.00049e-05
 Reference value :  3.00067e-05
 Reference value :  3.00075e-05
 Reference value :  3.00095e-05
 Reference value :  3.00116e-05
 Reference value :  3.00128e-05
 Reference value :  3.00207e-05
 Reference value :  3.00663e-05
 Reference value :  3.02501e-05
 Reference value :  3.02501e-05
 Reference value :  3.02502e-05
 Reference value :  3.02503e-05
 Reference value :  3.02504e-05
 Reference value :  3.02511e-05
 Reference value :  3.02520e-05
 Reference value :  3.02533e-05
 Reference value :  3.02546e-05
 Reference value :  3.02560e-05
 Reference value :  3.02579e-05
 Reference value :  3.02599e-05
 Reference value :  3.02655e-05
 Reference value :  3.02839e-05
 Reference value :  3.04174e-05
 Reference value :  3.05013e-05
 Reference value :  3.05039e-05
 Reference value :  3.05053e-05
 Reference value :  3.05076e-05
 Reference value :  3.05100e-05
 Reference value :  3.05127e-05
 Reference value :  3.05139e-05
 Reference value :  3.05161e-05
 Reference value :  3.05180e-05
 Reference value :  3.05201e-05
 Reference value :  3.05248e-05
 Reference value :  3.05417e-05
 Reference value :  3.05653e-05
 Reference value :  3.05982e-05
 Reference value :  3.06787e-05
 Reference value :  3.07220e-05
 Reference value :  3.07501e-05
 Reference value :  3.07502e-05
 Reference value :  3.07503e-05
 Reference value :  3.07507e-05
 Reference value :  3.07515e-05
 Reference value :  3.07520e-05
 Reference value :  3.07532e-05
 Reference value :  3.07546e-05
 Reference value :  3.07560e-05
 Reference value :  3.07568e-05
 Reference value :  3.07595e-05
 Reference value :  3.07703e-05
 Reference value :  3.08304e-05
 Reference value :  3.10000e-05
 Reference value :  3.10001e-05
 Reference value :  3.10002e-05
 Reference value :  3.10005e-05
 Reference value :  3.10013e-05
 Reference value :  3.10022e-05
 Reference value :  3.10033e-05
 Reference value :  3.10049e-05
 Reference value :  3.10067e-05
 Reference value :  3.10075e-05
 Reference value :  3.10095e-05
 Reference value :  3.10116e-05
 Reference value :  3.10141e-05
 Reference value :  3.10420e-05
 Reference value :  3.12122e-05
 Reference value :  3.12501e-05
 Reference value :  3.12502e-05
 Reference value :  3.12503e-05
 Reference value :  3.12504e-05
 Reference value :  3.12511e-05
 Reference value :  3.12520e-05
 Reference value :  3.12533e-05
 Reference value :  3.12540e-05
 Reference value :  3.12546e-05
 Reference value :  3.12560e-05
 Reference value :  3.12570e-05
 Reference value :  3.12588e-05
 Reference value :  3.12612e-05
 Reference value :  3.12655e-05
 Reference value :  3.12752e-05
 Reference value :  3.12988e-05
 Reference value :  3.14178e-05
 Reference value :  3.15000e-05
 Reference value :  3.15001e-05
 Reference value :  3.15001e-05
 Reference value :  3.15002e-05
 Reference value :  3.15003e-05
 Reference value :  3.15009e-05
 Reference value :  3.15013e-05
 Reference value :  3.15018e-05
 Reference value :  3.15022e-05
 Reference value :  3.15034e-05
 Reference value :  3.15046e-05
 Reference value :  3.15058e-05
 Reference value :  3.15064e-05
 Reference value :  3.15080e-05
 Reference value :  3.15115e-05
 Reference value :  3.15138e-05
 Reference value :  3.15162e-05
 Reference value :  3.15185e-05
 Reference value :  3.15213e-05
 Reference value :  3.15251e-05
 Reference value :  3.15345e-05
 Reference value :  3.15422e-05
 Reference value :  3.15616e-05
 Reference value :  3.15744e-05
 Reference value :  3.16200e-05
 Reference value :  3.17501e-05
 Reference value :  3.17501e-05
 Reference value :  3.17502e-05
 Reference value :  3.17503e-05
 Reference value :  3.17511e-05
 Reference value :  3.17520e-05
 Reference value :  3.17533e-05
 Reference value :  3.17540e-05
 Reference value :  3.17546e-05
 Reference value :  3.17560e-05
 Reference value :  3.17568e-05
 Reference value :  3.17595e-05
 Reference value :  3.17703e-05
 Reference value :  3.17980e-05
 Reference value :  3.18868e-05
 Reference value :  3.20000e-05
 Reference value :  3.20001e-05
 Reference value :  3.20001e-05
 Reference value :  3.20003e-05
 Reference value :  3.20013e-05
 Reference value :  3.20022e-05
 Reference value :  3.20041e-05
 Reference value :  3.20067e-05
 Reference value :  3.20084e-05
 Reference value :  3.20106e-05
 Reference value :  3.20141e-05
 Reference value :  3.20661e-05
 Reference value :  3.22501e-05
 Reference value :  3.22501e-05
 Reference value :  3.22502e-05
 Reference value :  3.22504e-05
 Reference value :  3.22515e-05
 Reference value :  3.22525e-05
 Reference value :  3.22546e-05
 Reference value :  3.22569e-05
 Reference value :  3.22599e-05
 Reference value :  3.22751e-05
 Reference value :  3.25000e-05
 Reference value :  3.25001e-05
 Reference value :  3.25003e-05
 Reference value :  3.25013e-05
 Reference value :  3.25028e-05
 Reference value :  3.25046e-05
 Reference value :  3.25058e-05
 Reference value :  3.25071e-05
 Reference value :  3.25105e-05
 Reference value :  3.25115e-05
 Reference value :  3.25138e-05
 Reference value :  3.25162e-05
 Reference value :  3.25198e-05
 Reference value :  3.25229e-05
 Reference value :  3.25340e-05
 Reference value :  3.25712e-05
 Reference value :  3.27501e-05
 Reference value :  3.27502e-05
 Reference value :  3.27503e-05
 Reference value :  3.27511e-05
 Reference value :  3.27520e-05
 Reference value :  3.27533e-05
 Reference value :  3.27546e-05
 Reference value :  3.27568e-05
 Reference value :  3.27649e-05
 Reference value :  3.28303e-05
 Reference value :  3.30000e-05
 Reference value :  3.30001e-05
 Reference value :  3.30001e-05
 Reference value :  3.30003e-05
 Reference value :  3.30013e-05
 Reference value :  3.30022e-05
 Reference value :  3.30033e-05
 Reference value :  3.30049e-05
 Reference value :  3.30067e-05
 Reference value :  3.30075e-05
 Reference value :  3.30095e-05
 Reference value :  3.30116e-05
 Reference value :  3.30141e-05
 Reference value :  3.30283e-05
 Reference value :  3.31145e-05
 Reference value :  3.32501e-05
 Reference value :  3.32502e-05
 Reference value :  3.32503e-05
 Reference value :  3.32507e-05
 Reference value :  3.32515e-05
 Reference value :  3.32525e-05
 Reference value :  3.32540e-05
 Reference value :  3.32553e-05
 Reference value :  3.32569e-05
 Reference value :  3.32599e-05
 Reference value :  3.32654e-05
 Reference value :  3.32985e-05
 Reference value :  3.35013e-05
 Reference value :  3.35053e-05
 Reference value :  3.35077e-05
 Reference value :  3.35097e-05
 Reference value :  3.35129e-05
 Reference value :  3.35181e-05
 Reference value :  3.35243e-05
 Reference value :  3.35307e-05
 Reference value :  3.35559e-05
 Reference value :  3.36624e-05
 Reference value :  3.37501e-05
 Reference value :  3.37502e-05
 Reference value :  3.37503e-05
 Reference value :  3.37511e-05
 Reference value :  3.37525e-05
 Reference value :  3.37549e-05
 Reference value :  3.37581e-05
 Reference value :  3.37920e-05
 Reference value :  3.40000e-05
 Reference value :  3.40000e-05
 Reference value :  3.40000e-05
 Reference value :  3.40001e-05
 Reference value :  3.40002e-05
 Reference value :  3.40008e-05
 Reference value :  3.40025e-05
 Reference value :  3.40037e-05
 Reference value :  3.40051e-05
 Reference value :  3.40063e-05
 Reference value :  3.40079e-05
 Reference value :  3.40221e-05
 Reference value :  3.40288e-05
 Reference value :  3.40337e-05
 Reference value :  3.40411e-05
 Reference value :  3.40463e-05
 Reference value :  3.40553e-05
 Reference value :  3.40679e-05
 Reference value :  3.40917e-05
 Reference value :  3.41534e-05
 Reference value :  3.42501e-05
 Reference value :  3.42502e-05
 Reference value :  3.42502e-05
 Reference value :  3.42504e-05
 Reference value :  3.42511e-05
 Reference value :  3.42520e-05
 Reference value :  3.42540e-05
 Reference value :  3.42553e-05
 Reference value :  3.42569e-05
 Reference value :  3.42595e-05
 Reference value :  3.42708e-05
 Reference value :  3.43310e-05
 Reference value :  3.44440e-05
 Reference value :  3.44940e-05
 Reference value :  3.45000e-05
 Reference value :  3.45001e-05
 Reference value :  3.45001e-05
 Reference value :  3.45002e-05
 Reference value :  3.45003e-05
 Reference value :  3.45009e-05
 Reference value :  3.45013e-05
 Reference value :  3.45022e-05
 Reference value :  3.45041e-05
 Reference value :  3.45056e-05
 Reference value :  3.45081e-05
 Reference value :  3.45113e-05
 Reference value :  3.45144e-05
 Reference value :  3.45159e-05
 Reference value :  3.45196e-05
 Reference value :  3.45318e-05
 Reference value :  3.45962e-05
 Reference value :  3.47501e-05
 Reference value :  3.47502e-05
 Reference value :  3.47502e-05
 Reference value :  3.47504e-05
 Reference value :  3.47511e-05
 Reference value :  3.47520e-05
 Reference value :  3.47533e-05
 Reference value :  3.47547e-05
 Reference value :  3.47561e-05
 Reference value :  3.47579e-05
 Reference value :  3.47598e-05
 Reference value :  3.47648e-05
 Reference value :  3.47788e-05
 Reference value :  3.48223e-05
 Reference value :  3.49617e-05
 Reference value :  3.50000e-05
 Reference value :  3.50001e-05
 Reference value :  3.50002e-05
 Reference value :  3.50003e-05
 Reference value :  3.50009e-05
 Reference value :  3.50013e-05
 Reference value :  3.50022e-05
 Reference value :  3.50034e-05
 Reference value :  3.50046e-05
 Reference value :  3.50058e-05
 Reference value :  3.50071e-05
 Reference value :  3.50105e-05
 Reference value :  3.50114e-05
 Reference value :  3.50138e-05
 Reference value :  3.50161e-05
 Reference value :  3.50184e-05
 Reference value :  3.50208e-05
 Reference value :  3.50266e-05
 Reference value :  3.50480e-05
 Reference value :  3.51507e-05
 Reference value :  3.51968e-05
 Reference value :  3.52309e-05
 Reference value :  3.52501e-05
 Reference value :  3.52502e-05
 Reference value :  3.52502e-05
 Reference value :  3.52504e-05
 Reference value :  3.52515e-05
 Reference value :  3.52526e-05
 Reference value :  3.52541e-05
 Reference value :  3.52553e-05
 Reference value :  3.52569e-05
 Reference value :  3.52618e-05
 Reference value :  3.52987e-05
 Reference value :  3.54832e-05
 Reference value :  3.55000e-05
 Reference value :  3.55001e-05
 Reference value :  3.55002e-05
 Reference value :  3.55005e-05
 Reference value :  3.55013e-05
 Reference value :  3.55022e-05
 Reference value :  3.55040e-05
 Reference value :  3.55053e-05
 Reference value :  3.55063e-05
 Reference value :  3.55073e-05
 Reference value :  3.55083e-05
 Reference value :  3.55093e-05
 Reference value :  3.55102e-05
 Reference value :  3.55112e-05
 Reference value :  3.55124e-05
 Reference value :  3.55162e-05
 Reference value :  3.55503e-05
 Reference value :  3.57501e-05
 Reference value :  3.57502e-05
 Reference value :  3.57502e-05
 Reference value :  3.57503e-05
 Reference value :  3.57511e-05
 Reference value :  3.57520e-05
 Reference value :  3.57541e-05
 Reference value :  3.57554e-05
 Reference value :  3.57579e-05
 Reference value :  3.57715e-05
 Reference value :  3.58847e-05
 Reference value :  3.60004e-05
 Reference value :  3.60015e-05
 Reference value :  3.60024e-05
 Reference value :  3.60035e-05
 Reference value :  3.60047e-05
 Reference value :  3.60059e-05
 Reference value :  3.60080e-05
 Reference value :  3.60126e-05
 Reference value :  3.60153e-05
 Reference value :  3.60189e-05
 Reference value :  3.60214e-05
 Reference value :  3.60337e-05
 Reference value :  3.60521e-05
 Reference value :  3.60690e-05
 Reference value :  3.60808e-05
 Reference value :  3.60987e-05
 Reference value :  3.61707e-05
 Reference value :  3.62501e-05
 Reference value :  3.62502e-05
 Reference value :  3.62504e-05
 Reference value :  3.62515e-05
 Reference value :  3.62526e-05
 Reference value :  3.62540e-05
 Reference value :  3.62547e-05
 Reference value :  3.62560e-05
 Reference value :  3.62599e-05
 Reference value :  3.62833e-05
 Reference value :  3.64815e-05
 Reference value :  3.65000e-05
 Reference value :  3.65001e-05
 Reference value :  3.65002e-05
 Reference value :  3.65009e-05
 Reference value :  3.65013e-05
 Reference value :  3.65022e-05
 Reference value :  3.65033e-05
 Reference value :  3.65049e-05
 Reference value :  3.65067e-05
 Reference value :  3.65075e-05
 Reference value :  3.65095e-05
 Reference value :  3.65116e-05
 Reference value :  3.65168e-05
 Reference value :  3.65664e-05
 Reference value :  3.67501e-05
 Reference value :  3.67502e-05
 Reference value :  3.67503e-05
 Reference value :  3.67507e-05
 Reference value :  3.67520e-05
 Reference value :  3.67540e-05
 Reference value :  3.67553e-05
 Reference value :  3.67570e-05
 Reference value :  3.67600e-05
 Reference value :  3.67655e-05
 Reference value :  3.67989e-05
 Reference value :  3.70000e-05
 Reference value :  3.70001e-05
 Reference value :  3.70001e-05
 Reference value :  3.70003e-05
 Reference value :  3.70009e-05
 Reference value :  3.70018e-05
 Reference value :  3.70022e-05
 Reference value :  3.70034e-05
 Reference value :  3.70046e-05
 Reference value :  3.70058e-05
 Reference value :  3.70071e-05
 Reference value :  3.70090e-05
 Reference value :  3.70115e-05
 Reference value :  3.70138e-05
 Reference value :  3.70162e-05
 Reference value :  3.70173e-05
 Reference value :  3.70185e-05
 Reference value :  3.70211e-05
 Reference value :  3.70247e-05
 Reference value :  3.70399e-05
 Reference value :  3.70786e-05
 Reference value :  3.70928e-05
 Reference value :  3.71027e-05
 Reference value :  3.71206e-05
 Reference value :  3.71374e-05
 Reference value :  3.71776e-05
 Reference value :  3.72501e-05
 Reference value :  3.72502e-05
 Reference value :  3.72503e-05
 Reference value :  3.72511e-05
 Reference value :  3.72520e-05
 Reference value :  3.72541e-05
 Reference value :  3.72560e-05
 Reference value :  3.72596e-05
 Reference value :  3.72987e-05
 Reference value :  3.75000e-05
 Reference value :  3.75001e-05
 Reference value :  3.75002e-05
 Reference value :  3.75009e-05
 Reference value :  3.75018e-05
 Reference value :  3.75028e-05
 Reference value :  3.75046e-05
 Reference value :  3.75063e-05
 Reference value :  3.75083e-05
 Reference value :  3.75102e-05
 Reference value :  3.75124e-05
 Reference value :  3.75309e-05
 Reference value :  3.76666e-05
 Reference value :  3.77501e-05
 Reference value :  3.77502e-05
 Reference value :  3.77503e-05
 Reference value :  3.77511e-05
 Reference value :  3.77520e-05
 Reference value :  3.77541e-05
 Reference value :  3.77554e-05
 Reference value :  3.77579e-05
 Reference value :  3.77655e-05
 Reference value :  3.78310e-05
 Reference value :  3.80000e-05
 Reference value :  3.80001e-05
 Reference value :  3.80002e-05
 Reference value :  3.80009e-05
 Reference value :  3.80018e-05
 Reference value :  3.80028e-05
 Reference value :  3.80046e-05
 Reference value :  3.80058e-05
 Reference value :  3.80071e-05
 Reference value :  3.80106e-05
 Reference value :  3.80140e-05
 Reference value :  3.80167e-05
 Reference value :  3.80191e-05
 Reference value :  3.80216e-05
 Reference value :  3.80253e-05
 Reference value :  3.80327e-05
 Reference value :  3.80432e-05
 Reference value :  3.80472e-05
 Reference value :  3.80506e-05
 Reference value :  3.80579e-05
 Reference value :  3.80679e-05
 Reference value :  3.80794e-05
 Reference value :  3.80993e-05
 Reference value :  3.81439e-05
 Reference value :  3.82501e-05
 Reference value :  3.82502e-05
 Reference value :  3.82502e-05
 Reference value :  3.82504e-05
 Reference value :  3.82511e-05
 Reference value :  3.82520e-05
 Reference value :  3.82533e-05
 Reference value :  3.82540e-05
 Reference value :  3.82546e-05
 Reference value :  3.82560e-05
 Reference value :  3.82569e-05
 Reference value :  3.82596e-05
 Reference value :  3.82710e-05
 Reference value :  3.83309e-05
 Reference value :  3.85000e-05
 Reference value :  3.85001e-05
 Reference value :  3.85001e-05
 Reference value :  3.85001e-05
 Reference value :  3.85003e-05
 Reference value :  3.85012e-05
 Reference value :  3.85021e-05
 Reference value :  3.85039e-05
 Reference value :  3.85053e-05
 Reference value :  3.85075e-05
 Reference value :  3.85097e-05
 Reference value :  3.85120e-05
 Reference value :  3.85176e-05
 Reference value :  3.85375e-05
 Reference value :  3.86501e-05
 Reference value :  3.87501e-05
 Reference value :  3.87502e-05
 Reference value :  3.87503e-05
 Reference value :  3.87507e-05
 Reference value :  3.87515e-05
 Reference value :  3.87520e-05
 Reference value :  3.87532e-05
 Reference value :  3.87546e-05
 Reference value :  3.87560e-05
 Reference value :  3.87578e-05
 Reference value :  3.87599e-05
 Reference value :  3.87654e-05
 Reference value :  3.87988e-05
 Reference value :  3.90000e-05
 Reference value :  3.90001e-05
 Reference value :  3.90001e-05
 Reference value :  3.90003e-05
 Reference value :  3.90009e-05
 Reference value :  3.90013e-05
 Reference value :  3.90022e-05
 Reference value :  3.90034e-05
 Reference value :  3.90046e-05
 Reference value :  3.90058e-05
 Reference value :  3.90064e-05
 Reference value :  3.90080e-05
 Reference value :  3.90105e-05
 Reference value :  3.90115e-05
 Reference value :  3.90138e-05
 Reference value :  3.90162e-05
 Reference value :  3.90185e-05
 Reference value :  3.90211e-05
 Reference value :  3.90248e-05
 Reference value :  3.90418e-05
 Reference value :  3.90619e-05
 Reference value :  3.90808e-05
 Reference value :  3.91011e-05
 Reference value :  3.91681e-05
 Reference value :  3.92073e-05
 Reference value :  3.92501e-05
 Reference value :  3.92502e-05
 Reference value :  3.92507e-05
 Reference value :  3.92520e-05
 Reference value :  3.92533e-05
 Reference value :  3.92540e-05
 Reference value :  3.92546e-05
 Reference value :  3.92560e-05
 Reference value :  3.92578e-05
 Reference value :  3.92651e-05
 Reference value :  3.92984e-05
 Reference value :  3.94948e-05
 Reference value :  3.95000e-05
 Reference value :  3.95001e-05
 Reference value :  3.95002e-05
 Reference value :  3.95009e-05
 Reference value :  3.95018e-05
 Reference value :  3.95027e-05
 Reference value :  3.95041e-05
 Reference value :  3.95056e-05
 Reference value :  3.95075e-05
 Reference value :  3.95095e-05
 Reference value :  3.95116e-05
 Reference value :  3.95141e-05
 Reference value :  3.95283e-05
 Reference value :  3.96145e-05
 Reference value :  3.97501e-05
 Reference value :  3.97502e-05
 Reference value :  3.97502e-05
 Reference value :  3.97504e-05
 Reference value :  3.97515e-05
 Reference value :  3.97520e-05
 Reference value :  3.97540e-05
 Reference value :  3.97553e-05
 Reference value :  3.97569e-05
 Reference value :  3.97599e-05
 Reference value :  3.97654e-05
 Reference value :  3.97985e-05
 Reference value :  4.00000e-05
 Reference value :  4.00001e-05
 Reference value :  4.00001e-05
 Reference value :  4.00003e-05
 Reference value :  4.00013e-05
 Reference value :  4.00022e-05
 Reference value :  4.00040e-05
 Reference value :  4.00046e-05
 Reference value :  4.00058e-05
 Reference value :  4.00064e-05
 Reference value :  4.00080e-05
 Reference value :  4.00105e-05
 Reference value :  4.00115e-05
 Reference value :  4.00138e-05
 Reference value :  4.00162e-05
 Reference value :  4.00185e-05
 Reference value :  4.00213e-05
 Reference value :  4.00282e-05
 Reference value :  4.00505e-05
 Reference value :  4.00857e-05
 Reference value :  4.01191e-05
 Reference value :  4.01664e-05
 Reference value :  4.02501e-05
 Reference value :  4.02502e-05
 Reference value :  4.02507e-05
 Reference value :  4.02520e-05
 Reference value :  4.02540e-05
 Reference value :  4.02553e-05
 Reference value :  4.02577e-05
 Reference value :  4.02703e-05
 Reference value :  4.03868e-05
 Reference value :  4.05000e-05
 Reference value :  4.05001e-05
 Reference value :  4.05002e-05
 Reference value :  4.05009e-05
 Reference value :  4.05018e-05
 Reference value :  4.05027e-05
 Reference value :  4.05049e-05
 Reference value :  4.05067e-05
 Reference value :  4.05075e-05
 Reference value :  4.05095e-05
 Reference value :  4.05128e-05
 Reference value :  4.05283e-05
 Reference value :  4.07112e-05
 Reference value :  4.07502e-05
 Reference value :  4.07502e-05
 Reference value :  4.07504e-05
 Reference value :  4.07515e-05
 Reference value :  4.07525e-05
 Reference value :  4.07540e-05
 Reference value :  4.07553e-05
 Reference value :  4.07569e-05
 Reference value :  4.07599e-05
 Reference value :  4.07690e-05
 Reference value :  4.07985e-05
 Reference value :  4.09163e-05
 Reference value :  4.10013e-05
 Reference value :  4.10053e-05
 Reference value :  4.10077e-05
 Reference value :  4.10127e-05
 Reference value :  4.10138e-05
 Reference value :  4.10167e-05
 Reference value :  4.10188e-05
 Reference value :  4.10210e-05
 Reference value :  4.10262e-05
 Reference value :  4.10633e-05
 Reference value :  4.10885e-05
 Reference value :  4.11309e-05
 Reference value :  4.11720e-05
 Reference value :  4.12501e-05
 Reference value :  4.12501e-05
 Reference value :  4.12502e-05
 Reference value :  4.12503e-05
 Reference value :  4.12504e-05
 Reference value :  4.12511e-05
 Reference value :  4.12520e-05
 Reference value :  4.12532e-05
 Reference value :  4.12547e-05
 Reference value :  4.12560e-05
 Reference value :  4.12568e-05
 Reference value :  4.12617e-05
 Reference value :  4.12811e-05
 Reference value :  4.13867e-05
 Reference value :  4.15000e-05
 Reference value :  4.15001e-05
 Reference value :  4.15002e-05
 Reference value :  4.15005e-05
 Reference value :  4.15013e-05
 Reference value :  4.15022e-05
 Reference value :  4.15034e-05
 Reference value :  4.15046e-05
 Reference value :  4.15063e-05
 Reference value :  4.15095e-05
 Reference value :  4.15117e-05
 Reference value :  4.15130e-05
 Reference value :  4.15211e-05
 Reference value :  4.15622e-05
 Reference value :  4.17501e-05
 Reference value :  4.17501e-05
 Reference value :  4.17502e-05
 Reference value :  4.17503e-05
 Reference value :  4.17504e-05
 Reference value :  4.17510e-05
 Reference value :  4.17520e-05
 Reference value :  4.17533e-05
 Reference value :  4.17546e-05
 Reference value :  4.17560e-05
 Reference value :  4.17579e-05
 Reference value :  4.17654e-05
 Reference value :  4.17996e-05
 Reference value :  4.20000e-05
 Reference value :  4.20001e-05
 Reference value :  4.20001e-05
 Reference value :  4.20003e-05
 Reference value :  4.20013e-05
 Reference value :  4.20022e-05
 Reference value :  4.20040e-05
 Reference value :  4.20046e-05
 Reference value :  4.20058e-05
 Reference value :  4.20064e-05
 Reference value :  4.20090e-05
 Reference value :  4.20111e-05
 Reference value :  4.20179e-05
 Reference value :  4.20505e-05
 Reference value :  4.22501e-05
 Reference value :  4.22502e-05
 Reference value :  4.22502e-05
 Reference value :  4.22504e-05
 Reference value :  4.22515e-05
 Reference value :  4.22525e-05
 Reference value :  4.22551e-05
 Reference value :  4.22603e-05
 Reference value :  4.22939e-05
 Reference value :  4.25000e-05
 Reference value :  4.25000e-05
 Reference value :  4.25000e-05
 Reference value :  4.25001e-05
 Reference value :  4.25001e-05
 Reference value :  4.25004e-05
 Reference value :  4.25013e-05
 Reference value :  4.25030e-05
 Reference value :  4.25044e-05
 Reference value :  4.25057e-05
 Reference value :  4.25079e-05
 Reference value :  4.25221e-05
 Reference value :  4.25288e-05
 Reference value :  4.25337e-05
 Reference value :  4.25374e-05
 Reference value :  4.25403e-05
 Reference value :  4.25447e-05
 Reference value :  4.25501e-05
 Reference value :  4.25538e-05
 Reference value :  4.25628e-05
 Reference value :  4.25753e-05
 Reference value :  4.26167e-05
 Reference value :  4.26985e-05
 Reference value :  4.27501e-05
 Reference value :  4.27502e-05
 Reference value :  4.27503e-05
 Reference value :  4.27511e-05
 Reference value :  4.27520e-05
 Reference value :  4.27541e-05
 Reference value :  4.27554e-05
 Reference value :  4.27569e-05
 Reference value :  4.27653e-05
 Reference value :  4.28311e-05
 Reference value :  4.29450e-05
 Reference value :  4.30000e-05
 Reference value :  4.30001e-05
 Reference value :  4.30002e-05
 Reference value :  4.30005e-05
 Reference value :  4.30018e-05
 Reference value :  4.30033e-05
 Reference value :  4.30056e-05
 Reference value :  4.30099e-05
 Reference value :  4.30128e-05
 Reference value :  4.30144e-05
 Reference value :  4.30175e-05
 Reference value :  4.30256e-05
 Reference value :  4.30960e-05
 Reference value :  4.32501e-05
 Reference value :  4.32502e-05
 Reference value :  4.32507e-05
 Reference value :  4.32520e-05
 Reference value :  4.32540e-05
 Reference value :  4.32553e-05
 Reference value :  4.32587e-05
 Reference value :  4.32627e-05
 Reference value :  4.32788e-05
 Reference value :  4.33528e-05
 Reference value :  4.35000e-05
 Reference value :  4.35006e-05
 Reference value :  4.35025e-05
 Reference value :  4.35038e-05
 Reference value :  4.35050e-05
 Reference value :  4.35067e-05
 Reference value :  4.35095e-05
 Reference value :  4.35117e-05
 Reference value :  4.35150e-05
 Reference value :  4.35183e-05
 Reference value :  4.35207e-05
 Reference value :  4.35260e-05
 Reference value :  4.35656e-05
 Reference value :  4.36918e-05
 Reference value :  4.37277e-05
 Reference value :  4.37501e-05
 Reference value :  4.37502e-05
 Reference value :  4.37502e-05
 Reference value :  4.37504e-05
 Reference value :  4.37510e-05
 Reference value :  4.37520e-05
 Reference value :  4.37540e-05
 Reference value :  4.37553e-05
 Reference value :  4.37568e-05
 Reference value :  4.37616e-05
 Reference value :  4.37982e-05
 Reference value :  4.40000e-05
 Reference value :  4.40001e-05
 Reference value :  4.40001e-05
 Reference value :  4.40003e-05
 Reference value :  4.40009e-05
 Reference value :  4.40018e-05
 Reference value :  4.40022e-05
 Reference value :  4.40034e-05
 Reference value :  4.40046e-05
 Reference value :  4.40073e-05
 Reference value :  4.40093e-05
 Reference value :  4.40124e-05
 Reference value :  4.40503e-05
 Reference value :  4.42501e-05
 Reference value :  4.42502e-05
 Reference value :  4.42507e-05
 Reference value :  4.42520e-05
 Reference value :  4.42541e-05
 Reference value :  4.42554e-05
 Reference value :  4.42579e-05
 Reference value :  4.42998e-05
 Reference value :  4.45000e-05
 Reference value :  4.45001e-05
 Reference value :  4.45002e-05
 Reference value :  4.45013e-05
 Reference value :  4.45028e-05
 Reference value :  4.45046e-05
 Reference value :  4.45058e-05
 Reference value :  4.45071e-05
 Reference value :  4.45090e-05
 Reference value :  4.45126e-05
 Reference value :  4.45140e-05
 Reference value :  4.45167e-05
 Reference value :  4.45191e-05
 Reference value :  4.45216e-05
 Reference value :  4.45287e-05
 Reference value :  4.45523e-05
 Reference value :  4.45702e-05
 Reference value :  4.45829e-05
 Reference value :  4.45951e-05
 Reference value :  4.46085e-05
 Reference value :  4.46356e-05
 Reference value :  4.47428e-05
 Reference value :  4.47501e-05
 Reference value :  4.47502e-05
 Reference value :  4.47503e-05
 Reference value :  4.47511e-05
 Reference value :  4.47520e-05
 Reference value :  4.47533e-05
 Reference value :  4.47546e-05
 Reference value :  4.47560e-05
 Reference value :  4.47578e-05
 Reference value :  4.47652e-05
 Reference value :  4.47990e-05
 Reference value :  4.49970e-05
 Reference value :  4.50000e-05
 Reference value :  4.50001e-05
 Reference value :  4.50002e-05
 Reference value :  4.50005e-05
 Reference value :  4.50013e-05
 Reference value :  4.50022e-05
 Reference value :  4.50033e-05
 Reference value :  4.50049e-05
 Reference value :  4.50067e-05
 Reference value :  4.50075e-05
 Reference value :  4.50095e-05
 Reference value :  4.50116e-05
 Reference value :  4.50141e-05
 Reference value :  4.50283e-05
 Reference value :  4.51148e-05
 Reference value :  4.52501e-05
 Reference value :  4.52502e-05
 Reference value :  4.52504e-05
 Reference value :  4.52515e-05
 Reference value :  4.52525e-05
[...]
 Reference value :  1.67000e-04
 Reference value :  1.67000e-04
 Reference value :  1.67001e-04
 Reference value :  1.67001e-04
 Reference value :  1.67002e-04
 Reference value :  1.67003e-04
 Reference value :  1.67005e-04
 Reference value :  1.67006e-04
 Reference value :  1.67008e-04
 Reference value :  1.67010e-04
 Reference value :  1.67012e-04
 Reference value :  1.67021e-04
 Reference value :  1.67089e-04
 Reference value :  1.67250e-04
 Reference value :  1.67250e-04
 Reference value :  1.67250e-04
 Reference value :  1.67251e-04
 Reference value :  1.67252e-04
 Reference value :  1.67253e-04
 Reference value :  1.67255e-04
 Reference value :  1.67257e-04
 Reference value :  1.67262e-04
 Reference value :  1.67282e-04
 Reference value :  1.67331e-04
 Reference value :  1.67500e-04
 Reference value :  1.67500e-04
 Reference value :  1.67500e-04
 Reference value :  1.67500e-04
 Reference value :  1.67501e-04
 Reference value :  1.67501e-04
 Reference value :  1.67502e-04
 Reference value :  1.67504e-04
 Reference value :  1.67505e-04
 Reference value :  1.67506e-04
 Reference value :  1.67506e-04
 Reference value :  1.67508e-04
 Reference value :  1.67511e-04
 Reference value :  1.67514e-04
 Reference value :  1.67517e-04
 Reference value :  1.67520e-04
 Reference value :  1.67526e-04
 Reference value :  1.67540e-04
 Reference value :  1.67547e-04
 Reference value :  1.67559e-04
 Reference value :  1.67565e-04
 Reference value :  1.67587e-04
 Reference value :  1.67630e-04
 Reference value :  1.67750e-04
 Reference value :  1.67750e-04
 Reference value :  1.67750e-04
 Reference value :  1.67750e-04
 Reference value :  1.67751e-04
 Reference value :  1.67752e-04
 Reference value :  1.67753e-04
 Reference value :  1.67754e-04
 Reference value :  1.67755e-04
 Reference value :  1.67757e-04
 Reference value :  1.67771e-04
 Reference value :  1.68000e-04
 Reference value :  1.68000e-04
 Reference value :  1.68000e-04
 Reference value :  1.68001e-04
 Reference value :  1.68003e-04
 Reference value :  1.68005e-04
 Reference value :  1.68008e-04
 Reference value :  1.68009e-04
 Reference value :  1.68013e-04
 Reference value :  1.68021e-04
 Reference value :  1.68115e-04
 Reference value :  1.68250e-04
 Reference value :  1.68250e-04
 Reference value :  1.68250e-04
 Reference value :  1.68252e-04
 Reference value :  1.68253e-04
 Reference value :  1.68255e-04
 Reference value :  1.68257e-04
 Reference value :  1.68260e-04
 Reference value :  1.68269e-04
 Reference value :  1.68322e-04
 Reference value :  1.68500e-04
 Reference value :  1.68500e-04
 Reference value :  1.68500e-04
 Reference value :  1.68501e-04
 Reference value :  1.68502e-04
 Reference value :  1.68505e-04
 Reference value :  1.68506e-04
 Reference value :  1.68507e-04
 Reference value :  1.68510e-04
 Reference value :  1.68511e-04
 Reference value :  1.68514e-04
 Reference value :  1.68516e-04
 Reference value :  1.68519e-04
 Reference value :  1.68521e-04
 Reference value :  1.68528e-04
 Reference value :  1.68541e-04
 Reference value :  1.68632e-04
 Reference value :  1.68750e-04
 Reference value :  1.68750e-04
 Reference value :  1.68750e-04
 Reference value :  1.68751e-04
 Reference value :  1.68752e-04
 Reference value :  1.68753e-04
 Reference value :  1.68755e-04
 Reference value :  1.68757e-04
 Reference value :  1.68762e-04
 Reference value :  1.68781e-04
 Reference value :  1.68887e-04
 Reference value :  1.69000e-04
 Reference value :  1.69000e-04
 Reference value :  1.69000e-04
 Reference value :  1.69001e-04
 Reference value :  1.69002e-04
 Reference value :  1.69004e-04
 Reference value :  1.69008e-04
 Reference value :  1.69009e-04
 Reference value :  1.69013e-04
 Reference value :  1.69028e-04
 Reference value :  1.69211e-04
 Reference value :  1.69250e-04
 Reference value :  1.69250e-04
 Reference value :  1.69250e-04
 Reference value :  1.69251e-04
 Reference value :  1.69252e-04
 Reference value :  1.69253e-04
 Reference value :  1.69255e-04
 Reference value :  1.69256e-04
 Reference value :  1.69258e-04
 Reference value :  1.69260e-04
 Reference value :  1.69265e-04
 Reference value :  1.69284e-04
 Reference value :  1.69416e-04
 Reference value :  1.69500e-04
 Reference value :  1.69500e-04
 Reference value :  1.69500e-04
 Reference value :  1.69501e-04
 Reference value :  1.69501e-04
 Reference value :  1.69502e-04
 Reference value :  1.69503e-04
 Reference value :  1.69505e-04
 Reference value :  1.69506e-04
 Reference value :  1.69507e-04
 Reference value :  1.69509e-04
 Reference value :  1.69511e-04
 Reference value :  1.69513e-04
 Reference value :  1.69516e-04
 Reference value :  1.69520e-04
 Reference value :  1.69525e-04
 Reference value :  1.69530e-04
 Reference value :  1.69533e-04
 Reference value :  1.69554e-04
 Reference value :  1.69609e-04
 Reference value :  1.69750e-04
 Reference value :  1.69750e-04
 Reference value :  1.69750e-04
 Reference value :  1.69750e-04
 Reference value :  1.69751e-04
 Reference value :  1.69752e-04
 Reference value :  1.69753e-04
 Reference value :  1.69755e-04
 Reference value :  1.69757e-04
 Reference value :  1.69760e-04
 Reference value :  1.69772e-04
 Reference value :  1.69817e-04
 Reference value :  1.70000e-04
 Reference value :  1.70000e-04
 Reference value :  1.70000e-04
 Reference value :  1.70000e-04
 Reference value :  1.70000e-04
 Reference value :  1.70000e-04
 Reference value :  1.70000e-04
 Reference value :  1.70000e-04
 Reference value :  1.70001e-04
 Reference value :  1.70002e-04
 Reference value :  1.70004e-04
 Reference value :  1.70005e-04
 Reference value :  1.70006e-04
 Reference value :  1.70007e-04
 Reference value :  1.70011e-04
 Reference value :  1.70022e-04
 Reference value :  1.70029e-04
 Reference value :  1.70034e-04
 Reference value :  1.70037e-04
 Reference value :  1.70041e-04
 Reference value :  1.70044e-04
 Reference value :  1.70049e-04
 Reference value :  1.70056e-04
 Reference value :  1.70063e-04
 Reference value :  1.70082e-04
 Reference value :  1.70136e-04
 Reference value :  1.70239e-04
 Reference value :  1.70250e-04
 Reference value :  1.70250e-04
 Reference value :  1.70250e-04
 Reference value :  1.70251e-04
 Reference value :  1.70252e-04
 Reference value :  1.70253e-04
 Reference value :  1.70254e-04
 Reference value :  1.70255e-04
 Reference value :  1.70256e-04
 Reference value :  1.70257e-04
 Reference value :  1.70262e-04
 Reference value :  1.70281e-04
 Reference value :  1.70387e-04
 Reference value :  1.70452e-04
 Reference value :  1.70500e-04
 Reference value :  1.70500e-04
 Reference value :  1.70500e-04
 Reference value :  1.70500e-04
 Reference value :  1.70501e-04
 Reference value :  1.70501e-04
 Reference value :  1.70502e-04
 Reference value :  1.70504e-04
 Reference value :  1.70506e-04
 Reference value :  1.70508e-04
 Reference value :  1.70511e-04
 Reference value :  1.70514e-04
 Reference value :  1.70516e-04
 Reference value :  1.70520e-04
 Reference value :  1.70526e-04
 Reference value :  1.70559e-04
 Reference value :  1.70750e-04
 Reference value :  1.70750e-04
 Reference value :  1.70750e-04
 Reference value :  1.70750e-04
 Reference value :  1.70750e-04
 Reference value :  1.70752e-04
 Reference value :  1.70753e-04
 Reference value :  1.70754e-04
 Reference value :  1.70755e-04
 Reference value :  1.70758e-04
 Reference value :  1.70760e-04
 Reference value :  1.70765e-04
 Reference value :  1.70779e-04
 Reference value :  1.70822e-04
 Reference value :  1.70963e-04
 Reference value :  1.71000e-04
 Reference value :  1.71000e-04
 Reference value :  1.71000e-04
 Reference value :  1.71001e-04
 Reference value :  1.71001e-04
 Reference value :  1.71002e-04
 Reference value :  1.71005e-04
 Reference value :  1.71006e-04
 Reference value :  1.71007e-04
 Reference value :  1.71010e-04
 Reference value :  1.71011e-04
 Reference value :  1.71015e-04
 Reference value :  1.71018e-04
 Reference value :  1.71022e-04
 Reference value :  1.71048e-04
 Reference value :  1.71149e-04
 Reference value :  1.71191e-04
 Reference value :  1.71222e-04
 Reference value :  1.71250e-04
 Reference value :  1.71250e-04
 Reference value :  1.71250e-04
 Reference value :  1.71251e-04
 Reference value :  1.71252e-04
 Reference value :  1.71254e-04
 Reference value :  1.71256e-04
 Reference value :  1.71259e-04
 Reference value :  1.71281e-04
 Reference value :  1.71498e-04
 Reference value :  1.71500e-04
 Reference value :  1.71500e-04
 Reference value :  1.71500e-04
 Reference value :  1.71501e-04
 Reference value :  1.71501e-04
 Reference value :  1.71502e-04
 Reference value :  1.71504e-04
 Reference value :  1.71506e-04
 Reference value :  1.71509e-04
 Reference value :  1.71512e-04
 Reference value :  1.71550e-04
 Reference value :  1.71750e-04
 Reference value :  1.71750e-04
 Reference value :  1.71751e-04
 Reference value :  1.71753e-04
 Reference value :  1.71755e-04
 Reference value :  1.71758e-04
 Reference value :  1.71772e-04
 Reference value :  1.71978e-04
 Reference value :  1.72000e-04
 Reference value :  1.72000e-04
 Reference value :  1.72001e-04
 Reference value :  1.72003e-04
 Reference value :  1.72005e-04
 Reference value :  1.72006e-04
 Reference value :  1.72006e-04
 Reference value :  1.72009e-04
 Reference value :  1.72014e-04
 Reference value :  1.72015e-04
 Reference value :  1.72018e-04
 Reference value :  1.72020e-04
 Reference value :  1.72025e-04
 Reference value :  1.72043e-04
 Reference value :  1.72074e-04
 Reference value :  1.72100e-04
 Reference value :  1.72117e-04
 Reference value :  1.72132e-04
 Reference value :  1.72193e-04
 Reference value :  1.72250e-04
 Reference value :  1.72250e-04
 Reference value :  1.72250e-04
 Reference value :  1.72251e-04
 Reference value :  1.72252e-04
 Reference value :  1.72253e-04
 Reference value :  1.72255e-04
 Reference value :  1.72256e-04
 Reference value :  1.72258e-04
 Reference value :  1.72271e-04
 Reference value :  1.72497e-04
 Reference value :  1.72500e-04
 Reference value :  1.72500e-04
 Reference value :  1.72501e-04
 Reference value :  1.72502e-04
 Reference value :  1.72503e-04
 Reference value :  1.72504e-04
 Reference value :  1.72506e-04
 Reference value :  1.72507e-04
 Reference value :  1.72508e-04
 Reference value :  1.72509e-04
 Reference value :  1.72511e-04
 Reference value :  1.72513e-04
 Reference value :  1.72517e-04
 Reference value :  1.72528e-04
 Reference value :  1.72566e-04
 Reference value :  1.72712e-04
 Reference value :  1.72750e-04
 Reference value :  1.72750e-04
 Reference value :  1.72750e-04
 Reference value :  1.72750e-04
 Reference value :  1.72750e-04
 Reference value :  1.72751e-04
 Reference value :  1.72752e-04
 Reference value :  1.72752e-04
 Reference value :  1.72753e-04
 Reference value :  1.72755e-04
 Reference value :  1.72756e-04
 Reference value :  1.72757e-04
 Reference value :  1.72759e-04
 Reference value :  1.72761e-04
 Reference value :  1.72765e-04
 Reference value :  1.72784e-04
 Reference value :  1.72858e-04
 Reference value :  1.73000e-04
 Reference value :  1.73000e-04
 Reference value :  1.73000e-04
 Reference value :  1.73001e-04
 Reference value :  1.73001e-04
 Reference value :  1.73002e-04
 Reference value :  1.73004e-04
 Reference value :  1.73005e-04
 Reference value :  1.73006e-04
 Reference value :  1.73007e-04
 Reference value :  1.73009e-04
 Reference value :  1.73011e-04
 Reference value :  1.73014e-04
 Reference value :  1.73016e-04
 Reference value :  1.73018e-04
 Reference value :  1.73021e-04
 Reference value :  1.73025e-04
 Reference value :  1.73039e-04
 Reference value :  1.73062e-04
 Reference value :  1.73073e-04
 Reference value :  1.73080e-04
 Reference value :  1.73095e-04
 Reference value :  1.73103e-04
 Reference value :  1.73121e-04
 Reference value :  1.73143e-04
 Reference value :  1.73207e-04
 Reference value :  1.73250e-04
 Reference value :  1.73250e-04
 Reference value :  1.73250e-04
 Reference value :  1.73251e-04
 Reference value :  1.73252e-04
 Reference value :  1.73253e-04
 Reference value :  1.73255e-04
 Reference value :  1.73256e-04
 Reference value :  1.73258e-04
 Reference value :  1.73270e-04
 Reference value :  1.73386e-04
 Reference value :  1.73500e-04
 Reference value :  1.73500e-04
 Reference value :  1.73500e-04
 Reference value :  1.73501e-04
 Reference value :  1.73502e-04
 Reference value :  1.73504e-04
 Reference value :  1.73505e-04
 Reference value :  1.73507e-04
 Reference value :  1.73509e-04
 Reference value :  1.73511e-04
 Reference value :  1.73516e-04
 Reference value :  1.73550e-04
 Reference value :  1.73750e-04
 Reference value :  1.73750e-04
 Reference value :  1.73750e-04
 Reference value :  1.73750e-04
 Reference value :  1.73750e-04
 Reference value :  1.73751e-04
 Reference value :  1.73752e-04
 Reference value :  1.73753e-04
 Reference value :  1.73755e-04
 Reference value :  1.73756e-04
 Reference value :  1.73760e-04
 Reference value :  1.73772e-04
 Reference value :  1.73885e-04
 Reference value :  1.74000e-04
 Reference value :  1.74000e-04
 Reference value :  1.74001e-04
 Reference value :  1.74003e-04
 Reference value :  1.74005e-04
 Reference value :  1.74006e-04
 Reference value :  1.74013e-04
 Reference value :  1.74015e-04
 Reference value :  1.74019e-04
 Reference value :  1.74029e-04
 Reference value :  1.74054e-04
 Reference value :  1.74068e-04
 Reference value :  1.74103e-04
 Reference value :  1.74250e-04
 Reference value :  1.74250e-04
 Reference value :  1.74250e-04
 Reference value :  1.74251e-04
 Reference value :  1.74252e-04
 Reference value :  1.74253e-04
 Reference value :  1.74255e-04
 Reference value :  1.74260e-04
 Reference value :  1.74334e-04
 Reference value :  1.74500e-04
 Reference value :  1.74500e-04
 Reference value :  1.74500e-04
 Reference value :  1.74501e-04
 Reference value :  1.74502e-04
 Reference value :  1.74505e-04
 Reference value :  1.74508e-04
 Reference value :  1.74512e-04
 Reference value :  1.74521e-04
 Reference value :  1.74750e-04
 Reference value :  1.74750e-04
 Reference value :  1.74751e-04
 Reference value :  1.74752e-04
 Reference value :  1.74755e-04
 Reference value :  1.74757e-04
 Reference value :  1.74761e-04
 Reference value :  1.74784e-04
 Reference value :  1.75000e-04
 Reference value :  1.75000e-04
 Reference value :  1.75001e-04
 Reference value :  1.75002e-04
 Reference value :  1.75003e-04
 Reference value :  1.75005e-04
 Reference value :  1.75006e-04
 Reference value :  1.75006e-04
 Reference value :  1.75008e-04
 Reference value :  1.75011e-04
 Reference value :  1.75014e-04
 Reference value :  1.75016e-04
 Reference value :  1.75019e-04
 Reference value :  1.75021e-04
 Reference value :  1.75025e-04
 Reference value :  1.75035e-04
 Reference value :  1.75039e-04
 Reference value :  1.75047e-04
 Reference value :  1.75096e-04
 Reference value :  1.75250e-04
 Reference value :  1.75250e-04
 Reference value :  1.75250e-04
 Reference value :  1.75251e-04
 Reference value :  1.75253e-04
 Reference value :  1.75255e-04
 Reference value :  1.75256e-04
 Reference value :  1.75257e-04
 Reference value :  1.75262e-04
 Reference value :  1.75386e-04
 Reference value :  1.75500e-04
 Reference value :  1.75500e-04
 Reference value :  1.75500e-04
 Reference value :  1.75501e-04
 Reference value :  1.75501e-04
 Reference value :  1.75502e-04
 Reference value :  1.75505e-04
 Reference value :  1.75507e-04
 Reference value :  1.75509e-04
 Reference value :  1.75510e-04
 Reference value :  1.75512e-04
 Reference value :  1.75521e-04
 Reference value :  1.75589e-04
 Reference value :  1.75750e-04
 Reference value :  1.75750e-04
 Reference value :  1.75750e-04
 Reference value :  1.75751e-04
 Reference value :  1.75753e-04
 Reference value :  1.75755e-04
 Reference value :  1.75756e-04
 Reference value :  1.75758e-04
 Reference value :  1.75766e-04
 Reference value :  1.75885e-04
 Reference value :  1.76000e-04
 Reference value :  1.76000e-04
 Reference value :  1.76000e-04
 Reference value :  1.76001e-04
 Reference value :  1.76002e-04
 Reference value :  1.76003e-04
 Reference value :  1.76004e-04
 Reference value :  1.76005e-04
 Reference value :  1.76006e-04
 Reference value :  1.76007e-04
 Reference value :  1.76011e-04
 Reference value :  1.76014e-04
 Reference value :  1.76018e-04
 Reference value :  1.76022e-04
 Reference value :  1.76034e-04
 Reference value :  1.76048e-04
 Reference value :  1.76064e-04
 Reference value :  1.76094e-04
 Reference value :  1.76217e-04
 Reference value :  1.76250e-04
 Reference value :  1.76250e-04
 Reference value :  1.76250e-04
 Reference value :  1.76252e-04
 Reference value :  1.76253e-04
 Reference value :  1.76255e-04
 Reference value :  1.76258e-04
 Reference value :  1.76265e-04
 Reference value :  1.76299e-04
 Reference value :  1.76497e-04
 Reference value :  1.76500e-04
 Reference value :  1.76500e-04
 Reference value :  1.76500e-04
 Reference value :  1.76501e-04
 Reference value :  1.76501e-04
 Reference value :  1.76502e-04
 Reference value :  1.76505e-04
 Reference value :  1.76508e-04
 Reference value :  1.76511e-04
 Reference value :  1.76513e-04
 Reference value :  1.76542e-04
 Reference value :  1.76750e-04
 Reference value :  1.76750e-04
 Reference value :  1.76750e-04
 Reference value :  1.76751e-04
 Reference value :  1.76752e-04
 Reference value :  1.76753e-04
 Reference value :  1.76755e-04
 Reference value :  1.76757e-04
 Reference value :  1.76759e-04
 Reference value :  1.76761e-04
 Reference value :  1.76769e-04
 Reference value :  1.76799e-04
 Reference value :  1.76917e-04
 Reference value :  1.77000e-04
 Reference value :  1.77000e-04
 Reference value :  1.77000e-04
 Reference value :  1.77001e-04
 Reference value :  1.77003e-04
 Reference value :  1.77005e-04
 Reference value :  1.77006e-04
 Reference value :  1.77006e-04
 Reference value :  1.77009e-04
 Reference value :  1.77011e-04
 Reference value :  1.77014e-04
 Reference value :  1.77017e-04
 Reference value :  1.77023e-04
 Reference value :  1.77034e-04
 Reference value :  1.77102e-04
 Reference value :  1.77168e-04
 Reference value :  1.77250e-04
 Reference value :  1.77250e-04
 Reference value :  1.77250e-04
 Reference value :  1.77252e-04
 Reference value :  1.77254e-04
 Reference value :  1.77255e-04
 Reference value :  1.77257e-04
 Reference value :  1.77265e-04
 Reference value :  1.77385e-04
 Reference value :  1.77500e-04
 Reference value :  1.77500e-04
 Reference value :  1.77500e-04
 Reference value :  1.77501e-04
 Reference value :  1.77502e-04
 Reference value :  1.77503e-04
 Reference value :  1.77505e-04
 Reference value :  1.77506e-04
 Reference value :  1.77507e-04
 Reference value :  1.77508e-04
 Reference value :  1.77510e-04
 Reference value :  1.77512e-04
 Reference value :  1.77550e-04
 Reference value :  1.77750e-04
 Reference value :  1.77750e-04
 Reference value :  1.77751e-04
 Reference value :  1.77752e-04
 Reference value :  1.77753e-04
 Reference value :  1.77755e-04
 Reference value :  1.77756e-04
 Reference value :  1.77760e-04
 Reference value :  1.77771e-04
 Reference value :  1.77800e-04
 Reference value :  1.77885e-04
 Reference value :  1.78000e-04
 Reference value :  1.78000e-04
 Reference value :  1.78000e-04
 Reference value :  1.78000e-04
 Reference value :  1.78001e-04
 Reference value :  1.78002e-04
 Reference value :  1.78005e-04
 Reference value :  1.78006e-04
 Reference value :  1.78006e-04
 Reference value :  1.78009e-04
 Reference value :  1.78011e-04
 Reference value :  1.78023e-04
 Reference value :  1.78085e-04
 Reference value :  1.78250e-04
 Reference value :  1.78250e-04
 Reference value :  1.78250e-04
 Reference value :  1.78251e-04
 Reference value :  1.78252e-04
 Reference value :  1.78254e-04
 Reference value :  1.78259e-04
 Reference value :  1.78263e-04
 Reference value :  1.78294e-04
 Reference value :  1.78433e-04
No. of Data Rows : 26535
ngspice-44 done
