
Note: Compatibility modes selected: hs a


Circuit: ** sch_path: /home/ece/cace/sar-adc-using-sky130-pdk/runs/run_2025-09-14_01-59-22/parameters/dnl/run_0/sar_output_dnl.sch

option SCALE: Scale is set to 1e-06 for instance and model parameters
option SCALE: Scale is set to 1e-06 for instance and model parameters
option SCALE: Scale is set to 1e-06 for instance and model parameters
option SCALE: Scale is set to 1e-06 for instance and model parameters
Doing analysis at TEMP = -55.000000 and TNOM = 27.000000

Using KLU as Direct Linear Solver
Operating point simulation skipped by 'uic',
  now using transient initial conditions.
 Reference value :  1.00000e-12
 Reference value :  1.02772e-12
 Reference value :  1.08316e-12
 Reference value :  1.19404e-12
 Reference value :  1.33848e-12
 Reference value :  1.62736e-12
 Reference value :  2.20513e-12
 Reference value :  3.05373e-12
 Reference value :  3.96069e-12
 Reference value :  5.17783e-12
 Reference value :  6.90794e-12
 Reference value :  1.00037e-11
 Reference value :  1.35153e-11
 Reference value :  2.03756e-11
 Reference value :  2.71066e-11
 Reference value :  3.61305e-11
 Reference value :  4.72898e-11
 Reference value :  6.30664e-11
 Reference value :  8.38214e-11
 Reference value :  1.00000e-10
 Reference value :  1.01296e-10
 Reference value :  1.03889e-10
 Reference value :  1.09074e-10
 Reference value :  1.19445e-10
 Reference value :  1.40186e-10
 Reference value :  1.81668e-10
 Reference value :  2.64631e-10
 Reference value :  4.16260e-10
 Reference value :  5.85140e-10
 Reference value :  8.56567e-10
 Reference value :  1.23175e-09
 Reference value :  1.61088e-09
 Reference value :  2.27222e-09
 Reference value :  2.95335e-09
 Reference value :  3.86732e-09
 Reference value :  4.56627e-09
 Reference value :  5.33342e-09
 Reference value :  6.10217e-09
 Reference value :  6.95264e-09
 Reference value :  8.09910e-09
 Reference value :  9.32932e-09
 Reference value :  1.04996e-08
 Reference value :  1.12936e-08
 Reference value :  1.21274e-08
 Reference value :  1.31153e-08
 Reference value :  1.40268e-08
 Reference value :  1.56110e-08
 Reference value :  1.74680e-08
 Reference value :  2.04276e-08
 Reference value :  2.38378e-08
 Reference value :  2.72050e-08
 Reference value :  3.12630e-08
 Reference value :  3.50250e-08
 Reference value :  3.89536e-08
 Reference value :  4.32191e-08
 Reference value :  4.75908e-08
 Reference value :  5.39265e-08
 Reference value :  6.28020e-08
 Reference value :  7.72732e-08
 Reference value :  9.99545e-08
 Reference value :  1.37198e-07
 Reference value :  2.04658e-07
 Reference value :  2.50100e-07
 Reference value :  2.50110e-07
 Reference value :  2.50130e-07
 Reference value :  2.50170e-07
 Reference value :  2.50200e-07
 Reference value :  2.50201e-07
 Reference value :  2.50202e-07
 Reference value :  2.50204e-07
 Reference value :  2.50209e-07
 Reference value :  2.50218e-07
 Reference value :  2.50236e-07
 Reference value :  2.50273e-07
 Reference value :  2.50339e-07
 Reference value :  2.50454e-07
 Reference value :  2.50579e-07
 Reference value :  2.50787e-07
 Reference value :  2.51084e-07
 Reference value :  2.51485e-07
 Reference value :  2.51974e-07
 Reference value :  2.52502e-07
 Reference value :  2.53135e-07
 Reference value :  2.53925e-07
 Reference value :  2.54627e-07
 Reference value :  2.55402e-07
 Reference value :  2.56101e-07
 Reference value :  2.56915e-07
 Reference value :  2.57746e-07
 Reference value :  2.58966e-07
 Reference value :  2.60758e-07
 Reference value :  2.62769e-07
 Reference value :  2.65889e-07
 Reference value :  2.71092e-07
 Reference value :  2.81498e-07
 Reference value :  3.02310e-07
 Reference value :  3.43935e-07
 Reference value :  4.27183e-07
 Reference value :  5.00000e-07
 Reference value :  5.00010e-07
 Reference value :  5.00030e-07
 Reference value :  5.00070e-07
 Reference value :  5.00100e-07
 Reference value :  5.00104e-07
 Reference value :  5.00113e-07
 Reference value :  5.00131e-07
 Reference value :  5.00166e-07
 Reference value :  5.00236e-07
 Reference value :  5.00365e-07
 Reference value :  5.00588e-07
 Reference value :  5.01009e-07
 Reference value :  5.01496e-07
 Reference value :  5.02020e-07
 Reference value :  5.02514e-07
 Reference value :  5.03092e-07
 Reference value :  5.03681e-07
 Reference value :  5.04424e-07
 Reference value :  5.05214e-07
 Reference value :  5.05968e-07
 Reference value :  5.07095e-07
 Reference value :  5.08219e-07
 Reference value :  5.09884e-07
 Reference value :  5.11914e-07
 Reference value :  5.13387e-07
 Reference value :  5.15020e-07
 Reference value :  5.16823e-07
 Reference value :  5.18559e-07
 Reference value :  5.20352e-07
 Reference value :  5.22756e-07
 Reference value :  5.25816e-07
 Reference value :  5.30252e-07
 Reference value :  5.36702e-07
 Reference value :  5.48661e-07
 Reference value :  5.66391e-07
 Reference value :  5.97454e-07
 Reference value :  6.48455e-07
 Reference value :  7.32678e-07
 Reference value :  7.50100e-07
 Reference value :  7.50110e-07
 Reference value :  7.50130e-07
 Reference value :  7.50170e-07
 Reference value :  7.50200e-07
 Reference value :  7.50201e-07
 Reference value :  7.50203e-07
 Reference value :  7.50206e-07
 Reference value :  7.50213e-07
 Reference value :  7.50226e-07
 Reference value :  7.50253e-07
 Reference value :  7.50307e-07
 Reference value :  7.50415e-07
 Reference value :  7.50630e-07
 Reference value :  7.50967e-07
 Reference value :  7.51325e-07
 Reference value :  7.51800e-07
 Reference value :  7.52315e-07
 Reference value :  7.53045e-07
 Reference value :  7.53867e-07
 Reference value :  7.54571e-07
 Reference value :  7.55395e-07
 Reference value :  7.56109e-07
 Reference value :  7.56866e-07
 Reference value :  7.57697e-07
 Reference value :  7.58644e-07
 Reference value :  7.60375e-07
 Reference value :  7.62777e-07
 Reference value :  7.65818e-07
 Reference value :  7.71829e-07
 Reference value :  7.83850e-07
 Reference value :  8.04482e-07
 Reference value :  8.45746e-07
 Reference value :  9.22726e-07
 Reference value :  1.00000e-06
 Reference value :  1.00001e-06
 Reference value :  1.00003e-06
 Reference value :  1.00007e-06
 Reference value :  1.00010e-06
 Reference value :  1.00010e-06
 Reference value :  1.00011e-06
 Reference value :  1.00013e-06
 Reference value :  1.00017e-06
 Reference value :  1.00024e-06
 Reference value :  1.00036e-06
 Reference value :  1.00059e-06
 Reference value :  1.00101e-06
 Reference value :  1.00149e-06
 Reference value :  1.00202e-06
 Reference value :  1.00251e-06
 Reference value :  1.00309e-06
 Reference value :  1.00363e-06
 Reference value :  1.00440e-06
 Reference value :  1.00503e-06
 Reference value :  1.00570e-06
 Reference value :  1.00651e-06
 Reference value :  1.00739e-06
 Reference value :  1.00817e-06
 Reference value :  1.00901e-06
 Reference value :  1.01012e-06
 Reference value :  1.01141e-06
 Reference value :  1.01328e-06
 Reference value :  1.01538e-06
 Reference value :  1.01711e-06
 Reference value :  1.01860e-06
 Reference value :  1.01971e-06
 Reference value :  1.02075e-06
 Reference value :  1.02170e-06
 Reference value :  1.02277e-06
 Reference value :  1.02390e-06
 Reference value :  1.02550e-06
 Reference value :  1.02724e-06
 Reference value :  1.03023e-06
 Reference value :  1.03518e-06
 Reference value :  1.04261e-06
 Reference value :  1.05587e-06
 Reference value :  1.07489e-06
 Reference value :  1.10494e-06
 Reference value :  1.16267e-06
 Reference value :  1.22328e-06
 Reference value :  1.25010e-06
 Reference value :  1.25011e-06
 Reference value :  1.25013e-06
 Reference value :  1.25017e-06
 Reference value :  1.25020e-06
 Reference value :  1.25020e-06
 Reference value :  1.25020e-06
 Reference value :  1.25021e-06
 Reference value :  1.25021e-06
 Reference value :  1.25023e-06
 Reference value :  1.25025e-06
 Reference value :  1.25031e-06
 Reference value :  1.25041e-06
 Reference value :  1.25062e-06
 Reference value :  1.25096e-06
 Reference value :  1.25131e-06
 Reference value :  1.25177e-06
 Reference value :  1.25228e-06
 Reference value :  1.25297e-06
 Reference value :  1.25378e-06
 Reference value :  1.25457e-06
 Reference value :  1.25543e-06
 Reference value :  1.25628e-06
 Reference value :  1.25713e-06
 Reference value :  1.25858e-06
 Reference value :  1.25991e-06
 Reference value :  1.26201e-06
 Reference value :  1.26473e-06
 Reference value :  1.26981e-06
 Reference value :  1.27868e-06
 Reference value :  1.29334e-06
 Reference value :  1.32069e-06
 Reference value :  1.36710e-06
 Reference value :  1.45057e-06
 Reference value :  1.50000e-06
 Reference value :  1.50001e-06
 Reference value :  1.50003e-06
 Reference value :  1.50007e-06
 Reference value :  1.50010e-06
 Reference value :  1.50010e-06
 Reference value :  1.50011e-06
 Reference value :  1.50013e-06
 Reference value :  1.50017e-06
 Reference value :  1.50024e-06
 Reference value :  1.50036e-06
 Reference value :  1.50057e-06
 Reference value :  1.50098e-06
 Reference value :  1.50148e-06
 Reference value :  1.50200e-06
 Reference value :  1.50249e-06
 Reference value :  1.50307e-06
 Reference value :  1.50360e-06
 Reference value :  1.50436e-06
 Reference value :  1.50505e-06
 Reference value :  1.50584e-06
 Reference value :  1.50684e-06
 Reference value :  1.50797e-06
 Reference value :  1.50936e-06
 Reference value :  1.51044e-06
 Reference value :  1.51160e-06
 Reference value :  1.51260e-06
 Reference value :  1.51378e-06
 Reference value :  1.51494e-06
 Reference value :  1.51632e-06
 Reference value :  1.51908e-06
 Reference value :  1.52391e-06
 Reference value :  1.53256e-06
 Reference value :  1.54985e-06
 Reference value :  1.58192e-06
 Reference value :  1.64488e-06
 Reference value :  1.75010e-06
 Reference value :  1.75011e-06
 Reference value :  1.75013e-06
 Reference value :  1.75017e-06
 Reference value :  1.75020e-06
 Reference value :  1.75020e-06
 Reference value :  1.75020e-06
 Reference value :  1.75021e-06
 Reference value :  1.75021e-06
 Reference value :  1.75023e-06
 Reference value :  1.75025e-06
 Reference value :  1.75031e-06
 Reference value :  1.75041e-06
 Reference value :  1.75062e-06
 Reference value :  1.75096e-06
 Reference value :  1.75131e-06
 Reference value :  1.75177e-06
 Reference value :  1.75228e-06
 Reference value :  1.75299e-06
 Reference value :  1.75378e-06
 Reference value :  1.75452e-06
 Reference value :  1.75537e-06
 Reference value :  1.75612e-06
 Reference value :  1.75689e-06
 Reference value :  1.75775e-06
 Reference value :  1.75873e-06
 Reference value :  1.76049e-06
 Reference value :  1.76289e-06
 Reference value :  1.76600e-06
 Reference value :  1.77221e-06
 Reference value :  1.78463e-06
 Reference value :  1.80561e-06
 Reference value :  1.84757e-06
 Reference value :  1.92902e-06
 Reference value :  2.00000e-06
 Reference value :  2.00001e-06
 Reference value :  2.00003e-06
 Reference value :  2.00007e-06
 Reference value :  2.00010e-06
 Reference value :  2.00010e-06
 Reference value :  2.00011e-06
 Reference value :  2.00013e-06
 Reference value :  2.00017e-06
 Reference value :  2.00024e-06
 Reference value :  2.00036e-06
 Reference value :  2.00057e-06
 Reference value :  2.00098e-06
 Reference value :  2.00148e-06
 Reference value :  2.00200e-06
 Reference value :  2.00248e-06
 Reference value :  2.00307e-06
 Reference value :  2.00360e-06
 Reference value :  2.00428e-06
 Reference value :  2.00498e-06
 Reference value :  2.00564e-06
 Reference value :  2.00654e-06
 Reference value :  2.00741e-06
 Reference value :  2.00817e-06
 Reference value :  2.00901e-06
 Reference value :  2.01019e-06
 Reference value :  2.01140e-06
 Reference value :  2.01333e-06
 Reference value :  2.01541e-06
 Reference value :  2.01710e-06
 Reference value :  2.01864e-06
 Reference value :  2.01989e-06
 Reference value :  2.02121e-06
 Reference value :  2.02237e-06
 Reference value :  2.02361e-06
 Reference value :  2.02498e-06
 Reference value :  2.02685e-06
 Reference value :  2.02887e-06
 Reference value :  2.03220e-06
 Reference value :  2.03489e-06
 Reference value :  2.03797e-06
 Reference value :  2.04172e-06
 Reference value :  2.04374e-06
 Reference value :  2.04641e-06
 Reference value :  2.04925e-06
 Reference value :  2.05371e-06
 Reference value :  2.05655e-06
 Reference value :  2.05971e-06
 Reference value :  2.06372e-06
 Reference value :  2.06792e-06
 Reference value :  2.07447e-06
 Reference value :  2.08088e-06
 Reference value :  2.08724e-06
 Reference value :  2.09503e-06
 Reference value :  2.10942e-06
 Reference value :  2.12831e-06
 Reference value :  2.16205e-06
 Reference value :  2.22485e-06
 Reference value :  2.25010e-06
 Reference value :  2.25011e-06
 Reference value :  2.25013e-06
 Reference value :  2.25017e-06
 Reference value :  2.25020e-06
 Reference value :  2.25020e-06
 Reference value :  2.25020e-06
 Reference value :  2.25021e-06
 Reference value :  2.25021e-06
 Reference value :  2.25023e-06
 Reference value :  2.25025e-06
 Reference value :  2.25031e-06
 Reference value :  2.25041e-06
 Reference value :  2.25062e-06
 Reference value :  2.25096e-06
 Reference value :  2.25131e-06
 Reference value :  2.25177e-06
 Reference value :  2.25228e-06
 Reference value :  2.25299e-06
 Reference value :  2.25378e-06
 Reference value :  2.25446e-06
 Reference value :  2.25525e-06
 Reference value :  2.25599e-06
 Reference value :  2.25677e-06
 Reference value :  2.25790e-06
 Reference value :  2.25908e-06
 Reference value :  2.26094e-06
 Reference value :  2.26345e-06
 Reference value :  2.26678e-06
 Reference value :  2.27342e-06
 Reference value :  2.28616e-06
 Reference value :  2.30771e-06
 Reference value :  2.35082e-06
 Reference value :  2.43702e-06
 Reference value :  2.50000e-06
 Reference value :  2.50001e-06
 Reference value :  2.50003e-06
 Reference value :  2.50007e-06
 Reference value :  2.50010e-06
 Reference value :  2.50010e-06
 Reference value :  2.50011e-06
 Reference value :  2.50013e-06
 Reference value :  2.50017e-06
 Reference value :  2.50024e-06
 Reference value :  2.50036e-06
 Reference value :  2.50057e-06
 Reference value :  2.50099e-06
 Reference value :  2.50148e-06
 Reference value :  2.50200e-06
 Reference value :  2.50246e-06
 Reference value :  2.50301e-06
 Reference value :  2.50353e-06
 Reference value :  2.50421e-06
 Reference value :  2.50492e-06
 Reference value :  2.50565e-06
 Reference value :  2.50666e-06
 Reference value :  2.50770e-06
 Reference value :  2.50920e-06
 Reference value :  2.51020e-06
 Reference value :  2.51134e-06
 Reference value :  2.51236e-06
 Reference value :  2.51357e-06
 Reference value :  2.51481e-06
 Reference value :  2.51620e-06
 Reference value :  2.51896e-06
 Reference value :  2.52396e-06
 Reference value :  2.53258e-06
 Reference value :  2.54980e-06
 Reference value :  2.58264e-06
 Reference value :  2.64831e-06
 Reference value :  2.75010e-06
 Reference value :  2.75011e-06
 Reference value :  2.75013e-06
 Reference value :  2.75017e-06
 Reference value :  2.75020e-06
 Reference value :  2.75020e-06
 Reference value :  2.75020e-06
 Reference value :  2.75021e-06
 Reference value :  2.75021e-06
 Reference value :  2.75023e-06
 Reference value :  2.75025e-06
 Reference value :  2.75031e-06
 Reference value :  2.75041e-06
 Reference value :  2.75062e-06
 Reference value :  2.75096e-06
 Reference value :  2.75131e-06
 Reference value :  2.75177e-06
 Reference value :  2.75228e-06
 Reference value :  2.75299e-06
 Reference value :  2.75377e-06
 Reference value :  2.75450e-06
 Reference value :  2.75535e-06
 Reference value :  2.75615e-06
 Reference value :  2.75691e-06
 Reference value :  2.75778e-06
 Reference value :  2.75876e-06
 Reference value :  2.75978e-06
 Reference value :  2.76103e-06
 Reference value :  2.76284e-06
 Reference value :  2.76470e-06
 Reference value :  2.76765e-06
 Reference value :  2.77155e-06
 Reference value :  2.77933e-06
 Reference value :  2.79472e-06
 Reference value :  2.82368e-06
 Reference value :  2.88162e-06
 Reference value :  2.99748e-06
 Reference value :  3.00000e-06
 Reference value :  3.00001e-06
 Reference value :  3.00003e-06
 Reference value :  3.00007e-06
 Reference value :  3.00010e-06
 Reference value :  3.00010e-06
 Reference value :  3.00011e-06
 Reference value :  3.00013e-06
 Reference value :  3.00017e-06
 Reference value :  3.00024e-06
 Reference value :  3.00036e-06
 Reference value :  3.00057e-06
 Reference value :  3.00099e-06
 Reference value :  3.00148e-06
 Reference value :  3.00200e-06
 Reference value :  3.00248e-06
 Reference value :  3.00306e-06
 Reference value :  3.00359e-06
 Reference value :  3.00433e-06
 Reference value :  3.00501e-06
 Reference value :  3.00570e-06
 Reference value :  3.00655e-06
 Reference value :  3.00741e-06
 Reference value :  3.00822e-06
 Reference value :  3.00905e-06
 Reference value :  3.01019e-06
 Reference value :  3.01148e-06
 Reference value :  3.01308e-06
 Reference value :  3.01455e-06
 Reference value :  3.01602e-06
 Reference value :  3.01739e-06
 Reference value :  3.01844e-06
 Reference value :  3.01941e-06
 Reference value :  3.02053e-06
 Reference value :  3.02153e-06
 Reference value :  3.02258e-06
 Reference value :  3.02378e-06
 Reference value :  3.02539e-06
 Reference value :  3.02716e-06
 Reference value :  3.03016e-06
 Reference value :  3.03520e-06
 Reference value :  3.04302e-06
 Reference value :  3.05711e-06
 Reference value :  3.07678e-06
 Reference value :  3.09530e-06
 Reference value :  3.11147e-06
 Reference value :  3.12549e-06
 Reference value :  3.14081e-06
 Reference value :  3.15170e-06
 Reference value :  3.15892e-06
 Reference value :  3.16551e-06
 Reference value :  3.17251e-06
 Reference value :  3.18413e-06
 Reference value :  3.20084e-06
 Reference value :  3.23040e-06
 Reference value :  3.25010e-06
 Reference value :  3.25011e-06
 Reference value :  3.25013e-06
 Reference value :  3.25017e-06
 Reference value :  3.25020e-06
 Reference value :  3.25020e-06
 Reference value :  3.25020e-06
 Reference value :  3.25021e-06
 Reference value :  3.25021e-06
 Reference value :  3.25023e-06
 Reference value :  3.25025e-06
 Reference value :  3.25031e-06
 Reference value :  3.25041e-06
 Reference value :  3.25063e-06
 Reference value :  3.25097e-06
 Reference value :  3.25132e-06
 Reference value :  3.25179e-06
 Reference value :  3.25230e-06
 Reference value :  3.25300e-06
 Reference value :  3.25382e-06
 Reference value :  3.25453e-06
 Reference value :  3.25534e-06
 Reference value :  3.25611e-06
 Reference value :  3.25691e-06
 Reference value :  3.25812e-06
 Reference value :  3.25936e-06
 Reference value :  3.26130e-06
 Reference value :  3.26388e-06
 Reference value :  3.26759e-06
 Reference value :  3.27502e-06
 Reference value :  3.28750e-06
 Reference value :  3.30992e-06
 Reference value :  3.35114e-06
 Reference value :  3.42337e-06
 Reference value :  3.50000e-06
 Reference value :  3.50001e-06
 Reference value :  3.50003e-06
 Reference value :  3.50007e-06
 Reference value :  3.50010e-06
 Reference value :  3.50010e-06
 Reference value :  3.50011e-06
 Reference value :  3.50013e-06
 Reference value :  3.50017e-06
 Reference value :  3.50024e-06
 Reference value :  3.50036e-06
 Reference value :  3.50057e-06
 Reference value :  3.50099e-06
 Reference value :  3.50148e-06
 Reference value :  3.50200e-06
 Reference value :  3.50246e-06
 Reference value :  3.50301e-06
 Reference value :  3.50353e-06
 Reference value :  3.50422e-06
 Reference value :  3.50493e-06
 Reference value :  3.50566e-06
 Reference value :  3.50667e-06
 Reference value :  3.50769e-06
 Reference value :  3.50917e-06
 Reference value :  3.51015e-06
 Reference value :  3.51128e-06
 Reference value :  3.51223e-06
 Reference value :  3.51338e-06
 Reference value :  3.51451e-06
 Reference value :  3.51586e-06
 Reference value :  3.51855e-06
 Reference value :  3.52350e-06
 Reference value :  3.53230e-06
 Reference value :  3.54992e-06
 Reference value :  3.58475e-06
 Reference value :  3.65440e-06
 Reference value :  3.75010e-06
 Reference value :  3.75011e-06
 Reference value :  3.75013e-06
 Reference value :  3.75017e-06
 Reference value :  3.75020e-06
 Reference value :  3.75020e-06
 Reference value :  3.75020e-06
 Reference value :  3.75021e-06
 Reference value :  3.75021e-06
 Reference value :  3.75023e-06
 Reference value :  3.75025e-06
 Reference value :  3.75031e-06
 Reference value :  3.75041e-06
 Reference value :  3.75062e-06
 Reference value :  3.75096e-06
 Reference value :  3.75131e-06
 Reference value :  3.75177e-06
 Reference value :  3.75228e-06
 Reference value :  3.75299e-06
 Reference value :  3.75378e-06
 Reference value :  3.75451e-06
 Reference value :  3.75536e-06
 Reference value :  3.75617e-06
 Reference value :  3.75693e-06
 Reference value :  3.75780e-06
 Reference value :  3.75878e-06
 Reference value :  3.75989e-06
 Reference value :  3.76109e-06
 Reference value :  3.76289e-06
 Reference value :  3.76478e-06
 Reference value :  3.76775e-06
 Reference value :  3.77186e-06
 Reference value :  3.78008e-06
 Reference value :  3.79653e-06
 Reference value :  3.82694e-06
 Reference value :  3.88775e-06
 Reference value :  4.00000e-06
 Reference value :  4.00001e-06
 Reference value :  4.00003e-06
 Reference value :  4.00007e-06
 Reference value :  4.00010e-06
 Reference value :  4.00010e-06
 Reference value :  4.00011e-06
 Reference value :  4.00013e-06
 Reference value :  4.00017e-06
 Reference value :  4.00024e-06
 Reference value :  4.00036e-06
 Reference value :  4.00057e-06
 Reference value :  4.00098e-06
 Reference value :  4.00148e-06
 Reference value :  4.00200e-06
 Reference value :  4.00248e-06
 Reference value :  4.00306e-06
 Reference value :  4.00359e-06
 Reference value :  4.00433e-06
 Reference value :  4.00501e-06
 Reference value :  4.00570e-06
 Reference value :  4.00654e-06
 Reference value :  4.00740e-06
 Reference value :  4.00820e-06
 Reference value :  4.00905e-06
 Reference value :  4.01014e-06
 Reference value :  4.01148e-06
 Reference value :  4.01244e-06
 Reference value :  4.01357e-06
 Reference value :  4.01472e-06
 Reference value :  4.01604e-06
 Reference value :  4.01723e-06
 Reference value :  4.01812e-06
 Reference value :  4.01898e-06
 Reference value :  4.02008e-06
 Reference value :  4.02122e-06
 Reference value :  4.02226e-06
 Reference value :  4.02360e-06
 Reference value :  4.02499e-06
 Reference value :  4.02701e-06
 Reference value :  4.02958e-06
 Reference value :  4.03474e-06
 Reference value :  4.04326e-06
 Reference value :  4.05595e-06
 Reference value :  4.06692e-06
 Reference value :  4.07575e-06
 Reference value :  4.08015e-06
 Reference value :  4.08423e-06
 Reference value :  4.08835e-06
 Reference value :  4.09640e-06
 Reference value :  4.10543e-06
 Reference value :  4.12014e-06
 Reference value :  4.14064e-06
 Reference value :  4.16022e-06
 Reference value :  4.17124e-06
 Reference value :  4.18249e-06
 Reference value :  4.19216e-06
 Reference value :  4.20120e-06
 Reference value :  4.21040e-06
 Reference value :  4.21951e-06
 Reference value :  4.23022e-06
 Reference value :  4.25010e-06
 Reference value :  4.25011e-06
 Reference value :  4.25013e-06
 Reference value :  4.25017e-06
 Reference value :  4.25020e-06
 Reference value :  4.25020e-06
 Reference value :  4.25020e-06
 Reference value :  4.25021e-06
 Reference value :  4.25021e-06
 Reference value :  4.25023e-06
 Reference value :  4.25025e-06
 Reference value :  4.25031e-06
 Reference value :  4.25041e-06
 Reference value :  4.25063e-06
 Reference value :  4.25097e-06
 Reference value :  4.25132e-06
 Reference value :  4.25179e-06
 Reference value :  4.25230e-06
 Reference value :  4.25300e-06
 Reference value :  4.25381e-06
 Reference value :  4.25448e-06
 Reference value :  4.25524e-06
 Reference value :  4.25594e-06
 Reference value :  4.25670e-06
 Reference value :  4.25781e-06
 Reference value :  4.25896e-06
 Reference value :  4.26084e-06
 Reference value :  4.26329e-06
 Reference value :  4.26655e-06
 Reference value :  4.27306e-06
 Reference value :  4.28576e-06
 Reference value :  4.30709e-06
 Reference value :  4.34974e-06
 Reference value :  4.43503e-06
 Reference value :  4.50000e-06
 Reference value :  4.50001e-06
 Reference value :  4.50003e-06
 Reference value :  4.50007e-06
 Reference value :  4.50010e-06
 Reference value :  4.50010e-06
 Reference value :  4.50011e-06
 Reference value :  4.50013e-06
 Reference value :  4.50017e-06
 Reference value :  4.50024e-06
 Reference value :  4.50036e-06
 Reference value :  4.50057e-06
 Reference value :  4.50098e-06
 Reference value :  4.50148e-06
 Reference value :  4.50200e-06
 Reference value :  4.50246e-06
 Reference value :  4.50300e-06
 Reference value :  4.50353e-06
 Reference value :  4.50422e-06
 Reference value :  4.50493e-06
 Reference value :  4.50566e-06
 Reference value :  4.50668e-06
 Reference value :  4.50769e-06
 Reference value :  4.50906e-06
 Reference value :  4.51002e-06
 Reference value :  4.51110e-06
 Reference value :  4.51206e-06
 Reference value :  4.51318e-06
 Reference value :  4.51435e-06
 Reference value :  4.51571e-06
 Reference value :  4.51843e-06
 Reference value :  4.52261e-06
 Reference value :  4.53096e-06
 Reference value :  4.54767e-06
 Reference value :  4.57891e-06
 Reference value :  4.64141e-06
 Reference value :  4.75010e-06
 Reference value :  4.75011e-06
 Reference value :  4.75013e-06
 Reference value :  4.75017e-06
 Reference value :  4.75020e-06
 Reference value :  4.75020e-06
 Reference value :  4.75020e-06
 Reference value :  4.75021e-06
 Reference value :  4.75021e-06
 Reference value :  4.75023e-06
 Reference value :  4.75025e-06
 Reference value :  4.75031e-06
 Reference value :  4.75041e-06
 Reference value :  4.75062e-06
 Reference value :  4.75096e-06
 Reference value :  4.75131e-06
 Reference value :  4.75177e-06
 Reference value :  4.75228e-06
 Reference value :  4.75299e-06
 Reference value :  4.75377e-06
 Reference value :  4.75450e-06
 Reference value :  4.75534e-06
 Reference value :  4.75614e-06
 Reference value :  4.75689e-06
 Reference value :  4.75776e-06
 Reference value :  4.75873e-06
 Reference value :  4.75979e-06
 Reference value :  4.76102e-06
 Reference value :  4.76292e-06
 Reference value :  4.76475e-06
 Reference value :  4.76779e-06
 Reference value :  4.77173e-06
 Reference value :  4.77961e-06
 Reference value :  4.79537e-06
 Reference value :  4.82436e-06
 Reference value :  4.88234e-06
 Reference value :  4.99829e-06
 Reference value :  5.00000e-06
 Reference value :  5.00001e-06
 Reference value :  5.00003e-06
 Reference value :  5.00007e-06
 Reference value :  5.00010e-06
 Reference value :  5.00010e-06
 Reference value :  5.00011e-06
 Reference value :  5.00013e-06
 Reference value :  5.00017e-06
 Reference value :  5.00024e-06
 Reference value :  5.00036e-06
 Reference value :  5.00057e-06
 Reference value :  5.00098e-06
 Reference value :  5.00148e-06
 Reference value :  5.00200e-06
 Reference value :  5.00248e-06
 Reference value :  5.00306e-06
 Reference value :  5.00359e-06
 Reference value :  5.00433e-06
 Reference value :  5.00501e-06
 Reference value :  5.00569e-06
 Reference value :  5.00656e-06
 Reference value :  5.00741e-06
 Reference value :  5.00823e-06
 Reference value :  5.00907e-06
 Reference value :  5.01013e-06
 Reference value :  5.01154e-06
 Reference value :  5.01251e-06
 Reference value :  5.01362e-06
 Reference value :  5.01481e-06
 Reference value :  5.01599e-06
 Reference value :  5.01725e-06
 Reference value :  5.01814e-06
 Reference value :  5.01897e-06
 Reference value :  5.01999e-06
 Reference value :  5.02108e-06
 Reference value :  5.02220e-06
 Reference value :  5.02349e-06
 Reference value :  5.02483e-06
 Reference value :  5.02691e-06
 Reference value :  5.02904e-06
 Reference value :  5.03331e-06
 Reference value :  5.03830e-06
 Reference value :  5.04282e-06
 Reference value :  5.04536e-06
 Reference value :  5.04786e-06
 Reference value :  5.05018e-06
 Reference value :  5.05261e-06
 Reference value :  5.05683e-06
 Reference value :  5.06127e-06
 Reference value :  5.06832e-06
 Reference value :  5.07856e-06
 Reference value :  5.09313e-06
 Reference value :  5.11608e-06
 Reference value :  5.14952e-06
 Reference value :  5.20126e-06
 Reference value :  5.25010e-06
 Reference value :  5.25011e-06
 Reference value :  5.25013e-06
 Reference value :  5.25017e-06
 Reference value :  5.25020e-06
 Reference value :  5.25020e-06
 Reference value :  5.25020e-06
 Reference value :  5.25021e-06
 Reference value :  5.25021e-06
 Reference value :  5.25023e-06
 Reference value :  5.25025e-06
 Reference value :  5.25031e-06
 Reference value :  5.25041e-06
 Reference value :  5.25062e-06
 Reference value :  5.25096e-06
 Reference value :  5.25131e-06
 Reference value :  5.25177e-06
 Reference value :  5.25229e-06
 Reference value :  5.25301e-06
 Reference value :  5.25380e-06
 Reference value :  5.25449e-06
 Reference value :  5.25528e-06
 Reference value :  5.25601e-06
 Reference value :  5.25680e-06
 Reference value :  5.25796e-06
 Reference value :  5.25916e-06
 Reference value :  5.26103e-06
 Reference value :  5.26357e-06
 Reference value :  5.26697e-06
 Reference value :  5.26985e-06
 Reference value :  5.27310e-06
 Reference value :  5.27729e-06
 Reference value :  5.28172e-06
 Reference value :  5.28979e-06
 Reference value :  5.30043e-06
 Reference value :  5.31617e-06
 Reference value :  5.33189e-06
 Reference value :  5.34554e-06
 Reference value :  5.36284e-06
 Reference value :  5.38992e-06
 Reference value :  5.42996e-06
 Reference value :  5.49283e-06
 Reference value :  5.50000e-06
 Reference value :  5.50001e-06
 Reference value :  5.50003e-06
 Reference value :  5.50007e-06
 Reference value :  5.50010e-06
 Reference value :  5.50010e-06
 Reference value :  5.50011e-06
 Reference value :  5.50013e-06
 Reference value :  5.50017e-06
 Reference value :  5.50024e-06
 Reference value :  5.50036e-06
 Reference value :  5.50057e-06
 Reference value :  5.50098e-06
 Reference value :  5.50148e-06
 Reference value :  5.50200e-06
 Reference value :  5.50246e-06
 Reference value :  5.50301e-06
 Reference value :  5.50353e-06
 Reference value :  5.50422e-06
 Reference value :  5.50493e-06
 Reference value :  5.50566e-06
 Reference value :  5.50667e-06
 Reference value :  5.50771e-06
 Reference value :  5.50907e-06
 Reference value :  5.51004e-06
 Reference value :  5.51113e-06
 Reference value :  5.51214e-06
 Reference value :  5.51326e-06
 Reference value :  5.51452e-06
 Reference value :  5.51594e-06
 Reference value :  5.51872e-06
 Reference value :  5.52269e-06
 Reference value :  5.53059e-06
 Reference value :  5.54530e-06
 Reference value :  5.57254e-06
 Reference value :  5.62702e-06
 Reference value :  5.72998e-06
 Reference value :  5.75010e-06
 Reference value :  5.75011e-06
 Reference value :  5.75013e-06
 Reference value :  5.75017e-06
 Reference value :  5.75020e-06
 Reference value :  5.75020e-06
 Reference value :  5.75020e-06
 Reference value :  5.75021e-06
 Reference value :  5.75021e-06
 Reference value :  5.75023e-06
 Reference value :  5.75025e-06
 Reference value :  5.75031e-06
 Reference value :  5.75041e-06
 Reference value :  5.75063e-06
 Reference value :  5.75097e-06
 Reference value :  5.75132e-06
 Reference value :  5.75179e-06
 Reference value :  5.75231e-06
 Reference value :  5.75300e-06
 Reference value :  5.75381e-06
 Reference value :  5.75452e-06
 Reference value :  5.75535e-06
 Reference value :  5.75615e-06
 Reference value :  5.75690e-06
 Reference value :  5.75775e-06
 Reference value :  5.75872e-06
 Reference value :  5.75976e-06
 Reference value :  5.76101e-06
 Reference value :  5.76283e-06
 Reference value :  5.76466e-06
 Reference value :  5.76763e-06
 Reference value :  5.77147e-06
 Reference value :  5.77915e-06
 Reference value :  5.79451e-06
 Reference value :  5.82312e-06
 Reference value :  5.88033e-06
 Reference value :  5.99477e-06
 Reference value :  6.00000e-06
 Reference value :  6.00001e-06
 Reference value :  6.00003e-06
 Reference value :  6.00007e-06
 Reference value :  6.00010e-06
 Reference value :  6.00010e-06
 Reference value :  6.00011e-06
 Reference value :  6.00013e-06
 Reference value :  6.00017e-06
 Reference value :  6.00024e-06
 Reference value :  6.00036e-06
 Reference value :  6.00057e-06
 Reference value :  6.00099e-06
 Reference value :  6.00148e-06
 Reference value :  6.00200e-06
 Reference value :  6.00248e-06
 Reference value :  6.00306e-06
 Reference value :  6.00359e-06
 Reference value :  6.00433e-06
 Reference value :  6.00501e-06
 Reference value :  6.00570e-06
 Reference value :  6.00656e-06
 Reference value :  6.00728e-06
 Reference value :  6.00805e-06
 Reference value :  6.00884e-06
 Reference value :  6.00984e-06
 Reference value :  6.01126e-06
 Reference value :  6.01226e-06
 Reference value :  6.01341e-06
 Reference value :  6.01453e-06
 Reference value :  6.01568e-06
 Reference value :  6.01688e-06
 Reference value :  6.01795e-06
 Reference value :  6.01880e-06
 Reference value :  6.01971e-06
 Reference value :  6.02068e-06
 Reference value :  6.02172e-06
 Reference value :  6.02271e-06
 Reference value :  6.02387e-06
 Reference value :  6.02545e-06
 Reference value :  6.02718e-06
 Reference value :  6.02902e-06
 Reference value :  6.03040e-06
 Reference value :  6.03175e-06
 Reference value :  6.03322e-06
 Reference value :  6.03479e-06
 Reference value :  6.03684e-06
 Reference value :  6.03970e-06
 Reference value :  6.04352e-06
 Reference value :  6.04917e-06
 Reference value :  6.05835e-06
 Reference value :  6.06862e-06
 Reference value :  6.08673e-06
 Reference value :  6.11847e-06
 Reference value :  6.16511e-06
 Reference value :  6.24970e-06
 Reference value :  6.25010e-06
 Reference value :  6.25011e-06
 Reference value :  6.25013e-06
 Reference value :  6.25017e-06
 Reference value :  6.25020e-06
 Reference value :  6.25020e-06
 Reference value :  6.25020e-06
 Reference value :  6.25021e-06
 Reference value :  6.25021e-06
 Reference value :  6.25023e-06
 Reference value :  6.25025e-06
 Reference value :  6.25031e-06
 Reference value :  6.25041e-06
 Reference value :  6.25062e-06
 Reference value :  6.25096e-06
 Reference value :  6.25131e-06
 Reference value :  6.25177e-06
 Reference value :  6.25229e-06
 Reference value :  6.25299e-06
 Reference value :  6.25379e-06
 Reference value :  6.25454e-06
 Reference value :  6.25539e-06
 Reference value :  6.25624e-06
 Reference value :  6.25706e-06
 Reference value :  6.25833e-06
 Reference value :  6.25964e-06
 Reference value :  6.26163e-06
 Reference value :  6.26429e-06
 Reference value :  6.26854e-06
 Reference value :  6.27706e-06
 Reference value :  6.29009e-06
 Reference value :  6.31500e-06
 Reference value :  6.35775e-06
 Reference value :  6.43299e-06
 Reference value :  6.50000e-06
 Reference value :  6.50001e-06
 Reference value :  6.50003e-06
 Reference value :  6.50007e-06
 Reference value :  6.50010e-06
 Reference value :  6.50010e-06
 Reference value :  6.50011e-06
 Reference value :  6.50013e-06
 Reference value :  6.50017e-06
 Reference value :  6.50024e-06
 Reference value :  6.50036e-06
 Reference value :  6.50057e-06
 Reference value :  6.50099e-06
 Reference value :  6.50148e-06
 Reference value :  6.50200e-06
 Reference value :  6.50248e-06
 Reference value :  6.50307e-06
 Reference value :  6.50359e-06
 Reference value :  6.50428e-06
 Reference value :  6.50499e-06
 Reference value :  6.50575e-06
 Reference value :  6.50677e-06
 Reference value :  6.50785e-06
 Reference value :  6.50926e-06
 Reference value :  6.51030e-06
 Reference value :  6.51144e-06
 Reference value :  6.51262e-06
 Reference value :  6.51386e-06
 Reference value :  6.51577e-06
 Reference value :  6.51752e-06
 Reference value :  6.52102e-06
 Reference value :  6.52588e-06
 Reference value :  6.53414e-06
 Reference value :  6.54930e-06
 Reference value :  6.57411e-06
 Reference value :  6.62053e-06
 Reference value :  6.70137e-06
 Reference value :  6.75010e-06
 Reference value :  6.75011e-06
 Reference value :  6.75013e-06
 Reference value :  6.75017e-06
 Reference value :  6.75020e-06
 Reference value :  6.75020e-06
 Reference value :  6.75020e-06
 Reference value :  6.75021e-06
 Reference value :  6.75021e-06
 Reference value :  6.75023e-06
 Reference value :  6.75025e-06
 Reference value :  6.75031e-06
 Reference value :  6.75041e-06
 Reference value :  6.75063e-06
 Reference value :  6.75097e-06
 Reference value :  6.75132e-06
 Reference value :  6.75179e-06
 Reference value :  6.75231e-06
 Reference value :  6.75300e-06
 Reference value :  6.75382e-06
 Reference value :  6.75453e-06
 Reference value :  6.75534e-06
 Reference value :  6.75606e-06
 Reference value :  6.75683e-06
 Reference value :  6.75767e-06
 Reference value :  6.75863e-06
 Reference value :  6.76037e-06
 Reference value :  6.76277e-06
 Reference value :  6.76580e-06
 Reference value :  6.77174e-06
 Reference value :  6.78363e-06
 Reference value :  6.80350e-06
 Reference value :  6.84325e-06
 Reference value :  6.92274e-06
 Reference value :  7.00000e-06
 Reference value :  7.00001e-06
 Reference value :  7.00003e-06
 Reference value :  7.00007e-06
 Reference value :  7.00010e-06
 Reference value :  7.00010e-06
 Reference value :  7.00011e-06
 Reference value :  7.00013e-06
 Reference value :  7.00017e-06
 Reference value :  7.00024e-06
 Reference value :  7.00036e-06
 Reference value :  7.00057e-06
 Reference value :  7.00099e-06
 Reference value :  7.00148e-06
 Reference value :  7.00200e-06
 Reference value :  7.00248e-06
 Reference value :  7.00306e-06
 Reference value :  7.00360e-06
 Reference value :  7.00428e-06
 Reference value :  7.00498e-06
 Reference value :  7.00563e-06
 Reference value :  7.00655e-06
 Reference value :  7.00740e-06
 Reference value :  7.00820e-06
 Reference value :  7.00907e-06
 Reference value :  7.01011e-06
 Reference value :  7.01156e-06
 Reference value :  7.01358e-06
 Reference value :  7.01569e-06
 Reference value :  7.01745e-06
 Reference value :  7.01893e-06
 Reference value :  7.02038e-06
 Reference value :  7.02184e-06
 Reference value :  7.02337e-06
 Reference value :  7.02520e-06
 Reference value :  7.02687e-06
 Reference value :  7.02925e-06
 Reference value :  7.03262e-06
 Reference value :  7.03738e-06
 Reference value :  7.04242e-06
 Reference value :  7.04822e-06
 Reference value :  7.05870e-06
 Reference value :  7.06883e-06
 Reference value :  7.08303e-06
 Reference value :  7.09725e-06
 Reference value :  7.10825e-06
 Reference value :  7.12002e-06
 Reference value :  7.13404e-06
 Reference value :  7.16208e-06
 Reference value :  7.20021e-06
 Reference value :  7.25010e-06
 Reference value :  7.25011e-06
 Reference value :  7.25013e-06
 Reference value :  7.25017e-06
 Reference value :  7.25020e-06
 Reference value :  7.25020e-06
 Reference value :  7.25020e-06
 Reference value :  7.25021e-06
 Reference value :  7.25021e-06
 Reference value :  7.25023e-06
 Reference value :  7.25025e-06
 Reference value :  7.25031e-06
 Reference value :  7.25041e-06
 Reference value :  7.25062e-06
 Reference value :  7.25096e-06
 Reference value :  7.25131e-06
 Reference value :  7.25177e-06
 Reference value :  7.25229e-06
 Reference value :  7.25299e-06
 Reference value :  7.25378e-06
 Reference value :  7.25445e-06
 Reference value :  7.25523e-06
 Reference value :  7.25594e-06
 Reference value :  7.25671e-06
 Reference value :  7.25783e-06
 Reference value :  7.25900e-06
 Reference value :  7.26086e-06
 Reference value :  7.26333e-06
 Reference value :  7.26659e-06
 Reference value :  7.27313e-06
 Reference value :  7.28035e-06
 Reference value :  7.28772e-06
 Reference value :  7.29578e-06
 Reference value :  7.31037e-06
 Reference value :  7.32384e-06
 Reference value :  7.35077e-06
 Reference value :  7.38308e-06
 Reference value :  7.41584e-06
 Reference value :  7.45541e-06
 Reference value :  7.50000e-06
 Reference value :  7.50001e-06
 Reference value :  7.50003e-06
 Reference value :  7.50007e-06
 Reference value :  7.50010e-06
 Reference value :  7.50010e-06
 Reference value :  7.50011e-06
 Reference value :  7.50013e-06
 Reference value :  7.50017e-06
 Reference value :  7.50024e-06
 Reference value :  7.50036e-06
 Reference value :  7.50057e-06
 Reference value :  7.50098e-06
 Reference value :  7.50146e-06
 Reference value :  7.50198e-06
 Reference value :  7.50247e-06
 Reference value :  7.50304e-06
 Reference value :  7.50357e-06
 Reference value :  7.50426e-06
 Reference value :  7.50497e-06
 Reference value :  7.50572e-06
 Reference value :  7.50673e-06
 Reference value :  7.50779e-06
 Reference value :  7.50925e-06
 Reference value :  7.51025e-06
 Reference value :  7.51139e-06
 Reference value :  7.51238e-06
 Reference value :  7.51352e-06
 Reference value :  7.51474e-06
 Reference value :  7.51614e-06
 Reference value :  7.51894e-06
 Reference value :  7.52298e-06
 Reference value :  7.53107e-06
 Reference value :  7.54694e-06
 Reference value :  7.57572e-06
 Reference value :  7.63329e-06
 Reference value :  7.74843e-06
 Reference value :  7.75010e-06
 Reference value :  7.75011e-06
 Reference value :  7.75013e-06
 Reference value :  7.75017e-06
 Reference value :  7.75020e-06
 Reference value :  7.75020e-06
 Reference value :  7.75020e-06
 Reference value :  7.75021e-06
 Reference value :  7.75021e-06
 Reference value :  7.75023e-06
 Reference value :  7.75025e-06
 Reference value :  7.75031e-06
 Reference value :  7.75041e-06
 Reference value :  7.75063e-06
 Reference value :  7.75097e-06
 Reference value :  7.75132e-06
 Reference value :  7.75179e-06
 Reference value :  7.75231e-06
 Reference value :  7.75300e-06
 Reference value :  7.75381e-06
 Reference value :  7.75449e-06
 Reference value :  7.75529e-06
 Reference value :  7.75599e-06
 Reference value :  7.75674e-06
 Reference value :  7.75757e-06
 Reference value :  7.75851e-06
 Reference value :  7.76026e-06
 Reference value :  7.76262e-06
 Reference value :  7.76564e-06
 Reference value :  7.77123e-06
 Reference value :  7.78241e-06
 Reference value :  7.80173e-06
 Reference value :  7.84004e-06
 Reference value :  7.91665e-06
 Reference value :  8.00000e-06
 Reference value :  8.00001e-06
 Reference value :  8.00003e-06
 Reference value :  8.00007e-06
 Reference value :  8.00010e-06
 Reference value :  8.00010e-06
 Reference value :  8.00011e-06
 Reference value :  8.00013e-06
 Reference value :  8.00017e-06
 Reference value :  8.00024e-06
 Reference value :  8.00036e-06
 Reference value :  8.00057e-06
 Reference value :  8.00098e-06
 Reference value :  8.00146e-06
 Reference value :  8.00198e-06
 Reference value :  8.00247e-06
 Reference value :  8.00304e-06
 Reference value :  8.00357e-06
 Reference value :  8.00425e-06
 Reference value :  8.00495e-06
 Reference value :  8.00560e-06
 Reference value :  8.00652e-06
 Reference value :  8.00737e-06
 Reference value :  8.00827e-06
 Reference value :  8.00910e-06
 Reference value :  8.01020e-06
 Reference value :  8.01157e-06
 Reference value :  8.01386e-06
 Reference value :  8.01613e-06
 Reference value :  8.01799e-06
 Reference value :  8.01998e-06
 Reference value :  8.02274e-06
 Reference value :  8.02555e-06
 Reference value :  8.03013e-06
 Reference value :  8.03614e-06
 Reference value :  8.04529e-06
 Reference value :  8.05966e-06
 Reference value :  8.08403e-06
 Reference value :  8.12294e-06
 Reference value :  8.19931e-06
 Reference value :  8.25010e-06
 Reference value :  8.25011e-06
 Reference value :  8.25013e-06
 Reference value :  8.25017e-06
 Reference value :  8.25020e-06
 Reference value :  8.25020e-06
 Reference value :  8.25020e-06
 Reference value :  8.25021e-06
 Reference value :  8.25021e-06
 Reference value :  8.25023e-06
 Reference value :  8.25025e-06
 Reference value :  8.25031e-06
 Reference value :  8.25041e-06
 Reference value :  8.25062e-06
 Reference value :  8.25096e-06
 Reference value :  8.25131e-06
 Reference value :  8.25177e-06
 Reference value :  8.25228e-06
 Reference value :  8.25298e-06
 Reference value :  8.25377e-06
 Reference value :  8.25485e-06
 Reference value :  8.25584e-06
 Reference value :  8.25702e-06
 Reference value :  8.25825e-06
 Reference value :  8.26008e-06
 Reference value :  8.26204e-06
 Reference value :  8.26515e-06
 Reference value :  8.26949e-06
 Reference value :  8.27818e-06
 Reference value :  8.29556e-06
 Reference value :  8.33032e-06
 Reference value :  8.39983e-06
 Reference value :  8.50000e-06
 Reference value :  8.50000e-06
 Reference value :  8.50000e-06
 Reference value :  8.50000e-06
 Reference value :  8.50000e-06
 Reference value :  8.50000e-06
 Reference value :  8.50000e-06
 Reference value :  8.50000e-06
 Reference value :  8.50000e-06
 Reference value :  8.50000e-06
 Reference value :  8.50001e-06
 Reference value :  8.50001e-06
 Reference value :  8.50002e-06
 Reference value :  8.50004e-06
 Reference value :  8.50008e-06
 Reference value :  8.50010e-06
 Reference value :  8.50010e-06
 Reference value :  8.50011e-06
 Reference value :  8.50012e-06
 Reference value :  8.50014e-06
 Reference value :  8.50018e-06
 Reference value :  8.50027e-06
 Reference value :  8.50044e-06
 Reference value :  8.50079e-06
 Reference value :  8.50127e-06
 Reference value :  8.50194e-06
 Reference value :  8.50264e-06
 Reference value :  8.50324e-06
 Reference value :  8.50386e-06
 Reference value :  8.50449e-06
 Reference value :  8.50517e-06
 Reference value :  8.50607e-06
 Reference value :  8.50702e-06
 Reference value :  8.50850e-06
 Reference value :  8.51026e-06
 Reference value :  8.51141e-06
 Reference value :  8.51280e-06
 Reference value :  8.51469e-06
 Reference value :  8.51661e-06
 Reference value :  8.51900e-06
 Reference value :  8.52296e-06
 Reference value :  8.52792e-06
 Reference value :  8.53123e-06
 Reference value :  8.53415e-06
 Reference value :  8.53694e-06
 Reference value :  8.53949e-06
 Reference value :  8.54162e-06
 Reference value :  8.54371e-06
 Reference value :  8.54531e-06
 Reference value :  8.54700e-06
 Reference value :  8.54922e-06
 Reference value :  8.55181e-06
 Reference value :  8.55426e-06
 Reference value :  8.55819e-06
 Reference value :  8.56242e-06
 Reference value :  8.57088e-06
 Reference value :  8.58397e-06
 Reference value :  8.60508e-06
 Reference value :  8.64411e-06
 Reference value :  8.69929e-06
 Reference value :  8.75010e-06
 Reference value :  8.75011e-06
 Reference value :  8.75013e-06
 Reference value :  8.75017e-06
 Reference value :  8.75020e-06
 Reference value :  8.75020e-06
 Reference value :  8.75020e-06
 Reference value :  8.75021e-06
 Reference value :  8.75021e-06
 Reference value :  8.75023e-06
 Reference value :  8.75025e-06
 Reference value :  8.75031e-06
 Reference value :  8.75041e-06
 Reference value :  8.75063e-06
 Reference value :  8.75097e-06
 Reference value :  8.75133e-06
 Reference value :  8.75181e-06
 Reference value :  8.75232e-06
 Reference value :  8.75296e-06
 Reference value :  8.75383e-06
 Reference value :  8.75470e-06
 Reference value :  8.75550e-06
 Reference value :  8.75630e-06
 Reference value :  8.75714e-06
 Reference value :  8.75839e-06
 Reference value :  8.75980e-06
 Reference value :  8.76178e-06
 Reference value :  8.76455e-06
 Reference value :  8.76908e-06
 Reference value :  8.77789e-06
 Reference value :  8.79158e-06
 Reference value :  8.81754e-06
 Reference value :  8.86194e-06
 Reference value :  8.94019e-06
 Reference value :  9.00000e-06
 Reference value :  9.00001e-06
 Reference value :  9.00003e-06
 Reference value :  9.00007e-06
 Reference value :  9.00010e-06
 Reference value :  9.00010e-06
 Reference value :  9.00011e-06
 Reference value :  9.00013e-06
 Reference value :  9.00017e-06
 Reference value :  9.00024e-06
 Reference value :  9.00036e-06
 Reference value :  9.00059e-06
 Reference value :  9.00101e-06
 Reference value :  9.00149e-06
 Reference value :  9.00202e-06
 Reference value :  9.00251e-06
 Reference value :  9.00309e-06
 Reference value :  9.00368e-06
 Reference value :  9.00437e-06
 Reference value :  9.00507e-06
 Reference value :  9.00581e-06
 Reference value :  9.00684e-06
 Reference value :  9.00790e-06
 Reference value :  9.00979e-06
 Reference value :  9.01186e-06
 Reference value :  9.01336e-06
 Reference value :  9.01507e-06
 Reference value :  9.01680e-06
 Reference value :  9.01846e-06
 Reference value :  9.02018e-06
 Reference value :  9.02242e-06
 Reference value :  9.02542e-06
 Reference value :  9.02975e-06
 Reference value :  9.03605e-06
 Reference value :  9.04760e-06
 Reference value :  9.06471e-06
 Reference value :  9.09449e-06
 Reference value :  9.14315e-06
 Reference value :  9.22322e-06
 Reference value :  9.25010e-06
 Reference value :  9.25011e-06
 Reference value :  9.25013e-06
 Reference value :  9.25017e-06
 Reference value :  9.25020e-06
 Reference value :  9.25020e-06
 Reference value :  9.25020e-06
 Reference value :  9.25021e-06
 Reference value :  9.25021e-06
 Reference value :  9.25023e-06
 Reference value :  9.25025e-06
 Reference value :  9.25031e-06
 Reference value :  9.25041e-06
 Reference value :  9.25063e-06
 Reference value :  9.25097e-06
 Reference value :  9.25133e-06
 Reference value :  9.25180e-06
 Reference value :  9.25231e-06
 Reference value :  9.25304e-06
 Reference value :  9.25386e-06
 Reference value :  9.25456e-06
 Reference value :  9.25538e-06
 Reference value :  9.25610e-06
 Reference value :  9.25686e-06
 Reference value :  9.25774e-06
 Reference value :  9.25872e-06
 Reference value :  9.26046e-06
 Reference value :  9.26289e-06
 Reference value :  9.26597e-06
 Reference value :  9.27214e-06
 Reference value :  9.28425e-06
 Reference value :  9.30411e-06
 Reference value :  9.34383e-06
 Reference value :  9.42326e-06
 Reference value :  9.50000e-06
 Reference value :  9.50001e-06
 Reference value :  9.50003e-06
 Reference value :  9.50007e-06
 Reference value :  9.50010e-06
 Reference value :  9.50010e-06
 Reference value :  9.50011e-06
 Reference value :  9.50013e-06
 Reference value :  9.50017e-06
 Reference value :  9.50024e-06
 Reference value :  9.50036e-06
 Reference value :  9.50059e-06
 Reference value :  9.50101e-06
 Reference value :  9.50149e-06
 Reference value :  9.50202e-06
 Reference value :  9.50251e-06
 Reference value :  9.50309e-06
 Reference value :  9.50363e-06
 Reference value :  9.50440e-06
 Reference value :  9.50503e-06
 Reference value :  9.50570e-06
 Reference value :  9.50650e-06
 Reference value :  9.50738e-06
 Reference value :  9.50815e-06
 Reference value :  9.50899e-06
 Reference value :  9.51011e-06
 Reference value :  9.51139e-06
 Reference value :  9.51326e-06
 Reference value :  9.51537e-06
 Reference value :  9.51709e-06
 Reference value :  9.51863e-06
 Reference value :  9.51977e-06
 Reference value :  9.52083e-06
 Reference value :  9.52180e-06
 Reference value :  9.52288e-06
 Reference value :  9.52401e-06
 Reference value :  9.52570e-06
 Reference value :  9.52741e-06
 Reference value :  9.53053e-06
 Reference value :  9.53534e-06
 Reference value :  9.54260e-06
 Reference value :  9.55529e-06
 Reference value :  9.57485e-06
 Reference value :  9.60414e-06
 Reference value :  9.66266e-06
 Reference value :  9.72233e-06
 Reference value :  9.75010e-06
 Reference value :  9.75011e-06
 Reference value :  9.75013e-06
 Reference value :  9.75017e-06
 Reference value :  9.75020e-06
 Reference value :  9.75020e-06
 Reference value :  9.75020e-06
 Reference value :  9.75021e-06
 Reference value :  9.75021e-06
 Reference value :  9.75023e-06
 Reference value :  9.75025e-06
 Reference value :  9.75031e-06
 Reference value :  9.75041e-06
 Reference value :  9.75062e-06
 Reference value :  9.75096e-06
 Reference value :  9.75131e-06
 Reference value :  9.75177e-06
 Reference value :  9.75228e-06
 Reference value :  9.75297e-06
 Reference value :  9.75378e-06
 Reference value :  9.75457e-06
 Reference value :  9.75543e-06
 Reference value :  9.75628e-06
 Reference value :  9.75713e-06
 Reference value :  9.75856e-06
 Reference value :  9.75990e-06
 Reference value :  9.76199e-06
 Reference value :  9.76472e-06
 Reference value :  9.76977e-06
 Reference value :  9.77841e-06
 Reference value :  9.79267e-06
 Reference value :  9.81884e-06
 Reference value :  9.86284e-06
 Reference value :  9.94118e-06
 Reference value :  1.00000e-05
 Reference value :  1.00000e-05
 Reference value :  1.00000e-05
 Reference value :  1.00001e-05
 Reference value :  1.00001e-05
 Reference value :  1.00001e-05
 Reference value :  1.00001e-05
 Reference value :  1.00001e-05
 Reference value :  1.00002e-05
 Reference value :  1.00002e-05
 Reference value :  1.00004e-05
 Reference value :  1.00006e-05
 Reference value :  1.00010e-05
 Reference value :  1.00015e-05
 Reference value :  1.00020e-05
 Reference value :  1.00025e-05
 Reference value :  1.00031e-05
 Reference value :  1.00036e-05
 Reference value :  1.00044e-05
 Reference value :  1.00051e-05
 Reference value :  1.00058e-05
 Reference value :  1.00068e-05
 Reference value :  1.00080e-05
 Reference value :  1.00094e-05
 Reference value :  1.00104e-05
 Reference value :  1.00116e-05
 Reference value :  1.00126e-05
 Reference value :  1.00138e-05
 Reference value :  1.00149e-05
 Reference value :  1.00163e-05
 Reference value :  1.00190e-05
 Reference value :  1.00239e-05
 Reference value :  1.00325e-05
 Reference value :  1.00496e-05
 Reference value :  1.00816e-05
 Reference value :  1.01444e-05
 Reference value :  1.02501e-05
 Reference value :  1.02501e-05
 Reference value :  1.02501e-05
 Reference value :  1.02502e-05
 Reference value :  1.02502e-05
 Reference value :  1.02502e-05
 Reference value :  1.02502e-05
 Reference value :  1.02502e-05
 Reference value :  1.02502e-05
 Reference value :  1.02502e-05
 Reference value :  1.02503e-05
 Reference value :  1.02503e-05
 Reference value :  1.02504e-05
 Reference value :  1.02506e-05
 Reference value :  1.02510e-05
 Reference value :  1.02513e-05
 Reference value :  1.02518e-05
 Reference value :  1.02523e-05
 Reference value :  1.02530e-05
 Reference value :  1.02538e-05
 Reference value :  1.02545e-05
 Reference value :  1.02554e-05
 Reference value :  1.02561e-05
 Reference value :  1.02569e-05
 Reference value :  1.02578e-05
 Reference value :  1.02587e-05
 Reference value :  1.02605e-05
 Reference value :  1.02629e-05
 Reference value :  1.02660e-05
 Reference value :  1.02722e-05
 Reference value :  1.02846e-05
 Reference value :  1.03050e-05
 Reference value :  1.03458e-05
 Reference value :  1.04275e-05
 Reference value :  1.05000e-05
 Reference value :  1.05000e-05
 Reference value :  1.05000e-05
 Reference value :  1.05001e-05
 Reference value :  1.05001e-05
 Reference value :  1.05001e-05
 Reference value :  1.05001e-05
 Reference value :  1.05001e-05
 Reference value :  1.05002e-05
 Reference value :  1.05002e-05
 Reference value :  1.05004e-05
 Reference value :  1.05006e-05
 Reference value :  1.05010e-05
 Reference value :  1.05015e-05
 Reference value :  1.05020e-05
 Reference value :  1.05025e-05
 Reference value :  1.05031e-05
 Reference value :  1.05036e-05
 Reference value :  1.05043e-05
 Reference value :  1.05050e-05
 Reference value :  1.05056e-05
 Reference value :  1.05065e-05
 Reference value :  1.05074e-05
 Reference value :  1.05082e-05
 Reference value :  1.05090e-05
 Reference value :  1.05102e-05
 Reference value :  1.05114e-05
 Reference value :  1.05133e-05
 Reference value :  1.05154e-05
 Reference value :  1.05171e-05
 Reference value :  1.05186e-05
 Reference value :  1.05199e-05
 Reference value :  1.05212e-05
 Reference value :  1.05224e-05
 Reference value :  1.05236e-05
 Reference value :  1.05250e-05
 Reference value :  1.05268e-05
 Reference value :  1.05288e-05
 Reference value :  1.05325e-05
 Reference value :  1.05361e-05
 Reference value :  1.05393e-05
 Reference value :  1.05431e-05
 Reference value :  1.05471e-05
 Reference value :  1.05491e-05
 Reference value :  1.05522e-05
 Reference value :  1.05566e-05
 Reference value :  1.05594e-05
 Reference value :  1.05625e-05
 Reference value :  1.05664e-05
 Reference value :  1.05705e-05
 Reference value :  1.05769e-05
 Reference value :  1.05834e-05
 Reference value :  1.05898e-05
 Reference value :  1.05976e-05
 Reference value :  1.06097e-05
 Reference value :  1.06286e-05
 Reference value :  1.06586e-05
 Reference value :  1.07166e-05
 Reference value :  1.07501e-05
 Reference value :  1.07501e-05
 Reference value :  1.07501e-05
 Reference value :  1.07502e-05
 Reference value :  1.07502e-05
 Reference value :  1.07502e-05
 Reference value :  1.07502e-05
 Reference value :  1.07502e-05
 Reference value :  1.07502e-05
 Reference value :  1.07502e-05
 Reference value :  1.07503e-05
 Reference value :  1.07503e-05
 Reference value :  1.07504e-05
 Reference value :  1.07506e-05
 Reference value :  1.07510e-05
 Reference value :  1.07513e-05
 Reference value :  1.07518e-05
 Reference value :  1.07523e-05
 Reference value :  1.07530e-05
 Reference value :  1.07538e-05
 Reference value :  1.07545e-05
 Reference value :  1.07553e-05
 Reference value :  1.07560e-05
 Reference value :  1.07568e-05
 Reference value :  1.07579e-05
 Reference value :  1.07591e-05
 Reference value :  1.07609e-05
 Reference value :  1.07634e-05
 Reference value :  1.07668e-05
 Reference value :  1.07734e-05
 Reference value :  1.07859e-05
 Reference value :  1.08070e-05
 Reference value :  1.08491e-05
 Reference value :  1.09333e-05
 Reference value :  1.10000e-05
 Reference value :  1.10000e-05
 Reference value :  1.10000e-05
 Reference value :  1.10001e-05
 Reference value :  1.10001e-05
 Reference value :  1.10001e-05
 Reference value :  1.10001e-05
 Reference value :  1.10001e-05
 Reference value :  1.10002e-05
 Reference value :  1.10002e-05
 Reference value :  1.10004e-05
 Reference value :  1.10006e-05
 Reference value :  1.10010e-05
 Reference value :  1.10015e-05
 Reference value :  1.10020e-05
 Reference value :  1.10025e-05
 Reference value :  1.10030e-05
 Reference value :  1.10035e-05
 Reference value :  1.10042e-05
 Reference value :  1.10049e-05
 Reference value :  1.10056e-05
 Reference value :  1.10067e-05
 Reference value :  1.10077e-05
 Reference value :  1.10092e-05
 Reference value :  1.10102e-05
 Reference value :  1.10113e-05
 Reference value :  1.10124e-05
 Reference value :  1.10136e-05
 Reference value :  1.10148e-05
 Reference value :  1.10162e-05
 Reference value :  1.10189e-05
 Reference value :  1.10239e-05
 Reference value :  1.10325e-05
 Reference value :  1.10497e-05
 Reference value :  1.10825e-05
 Reference value :  1.11480e-05
 Reference value :  1.12501e-05
 Reference value :  1.12501e-05
 Reference value :  1.12501e-05
 Reference value :  1.12502e-05
 Reference value :  1.12502e-05
 Reference value :  1.12502e-05
 Reference value :  1.12502e-05
 Reference value :  1.12502e-05
 Reference value :  1.12502e-05
 Reference value :  1.12502e-05
 Reference value :  1.12503e-05
 Reference value :  1.12503e-05
 Reference value :  1.12504e-05
 Reference value :  1.12506e-05
 Reference value :  1.12510e-05
 Reference value :  1.12513e-05
 Reference value :  1.12518e-05
 Reference value :  1.12523e-05
 Reference value :  1.12530e-05
 Reference value :  1.12538e-05
 Reference value :  1.12545e-05
 Reference value :  1.12553e-05
 Reference value :  1.12562e-05
 Reference value :  1.12569e-05
 Reference value :  1.12578e-05
 Reference value :  1.12588e-05
 Reference value :  1.12598e-05
 Reference value :  1.12610e-05
 Reference value :  1.12628e-05
 Reference value :  1.12647e-05
 Reference value :  1.12676e-05
 Reference value :  1.12715e-05
 Reference value :  1.12793e-05
 Reference value :  1.12944e-05
 Reference value :  1.13234e-05
 Reference value :  1.13814e-05
 Reference value :  1.14975e-05
 Reference value :  1.15000e-05
 Reference value :  1.15000e-05
 Reference value :  1.15000e-05
 Reference value :  1.15001e-05
 Reference value :  1.15001e-05
 Reference value :  1.15001e-05
 Reference value :  1.15001e-05
 Reference value :  1.15001e-05
 Reference value :  1.15002e-05
 Reference value :  1.15002e-05
 Reference value :  1.15004e-05
 Reference value :  1.15006e-05
 Reference value :  1.15010e-05
 Reference value :  1.15015e-05
 Reference value :  1.15020e-05
 Reference value :  1.15025e-05
 Reference value :  1.15031e-05
 Reference value :  1.15036e-05
 Reference value :  1.15043e-05
 Reference value :  1.15050e-05
 Reference value :  1.15057e-05
 Reference value :  1.15066e-05
 Reference value :  1.15074e-05
 Reference value :  1.15082e-05
 Reference value :  1.15091e-05
 Reference value :  1.15102e-05
 Reference value :  1.15115e-05
 Reference value :  1.15131e-05
 Reference value :  1.15145e-05
 Reference value :  1.15160e-05
 Reference value :  1.15174e-05
 Reference value :  1.15184e-05
 Reference value :  1.15194e-05
 Reference value :  1.15205e-05
 Reference value :  1.15215e-05
 Reference value :  1.15226e-05
 Reference value :  1.15237e-05
 Reference value :  1.15253e-05
 Reference value :  1.15271e-05
 Reference value :  1.15299e-05
 Reference value :  1.15349e-05
 Reference value :  1.15424e-05
 Reference value :  1.15557e-05
 Reference value :  1.15710e-05
 Reference value :  1.15857e-05
 Reference value :  1.15989e-05
 Reference value :  1.16089e-05
 Reference value :  1.16181e-05
 Reference value :  1.16279e-05
 Reference value :  1.16378e-05
 Reference value :  1.16520e-05
 Reference value :  1.16597e-05
 Reference value :  1.16669e-05
 Reference value :  1.16722e-05
 Reference value :  1.16767e-05
 Reference value :  1.16816e-05
 Reference value :  1.16867e-05
 Reference value :  1.16918e-05
 Reference value :  1.16991e-05
 Reference value :  1.17059e-05
 Reference value :  1.17124e-05
 Reference value :  1.17191e-05
 Reference value :  1.17324e-05
 Reference value :  1.17494e-05
 Reference value :  1.17501e-05
 Reference value :  1.17501e-05
 Reference value :  1.17501e-05
 Reference value :  1.17502e-05
 Reference value :  1.17502e-05
 Reference value :  1.17502e-05
 Reference value :  1.17502e-05
 Reference value :  1.17502e-05
 Reference value :  1.17502e-05
 Reference value :  1.17502e-05
 Reference value :  1.17503e-05
 Reference value :  1.17503e-05
 Reference value :  1.17504e-05
 Reference value :  1.17506e-05
 Reference value :  1.17510e-05
 Reference value :  1.17513e-05
 Reference value :  1.17518e-05
 Reference value :  1.17523e-05
 Reference value :  1.17530e-05
 Reference value :  1.17538e-05
 Reference value :  1.17545e-05
 Reference value :  1.17553e-05
 Reference value :  1.17560e-05
 Reference value :  1.17568e-05
 Reference value :  1.17579e-05
 Reference value :  1.17591e-05
 Reference value :  1.17610e-05
 Reference value :  1.17635e-05
 Reference value :  1.17669e-05
 Reference value :  1.17737e-05
 Reference value :  1.17861e-05
 Reference value :  1.18072e-05
 Reference value :  1.18484e-05
 Reference value :  1.19309e-05
 Reference value :  1.20000e-05
 Reference value :  1.20000e-05
 Reference value :  1.20000e-05
 Reference value :  1.20001e-05
 Reference value :  1.20001e-05
 Reference value :  1.20001e-05
 Reference value :  1.20001e-05
 Reference value :  1.20001e-05
 Reference value :  1.20002e-05
 Reference value :  1.20002e-05
 Reference value :  1.20004e-05
 Reference value :  1.20006e-05
 Reference value :  1.20010e-05
 Reference value :  1.20015e-05
 Reference value :  1.20020e-05
 Reference value :  1.20025e-05
 Reference value :  1.20030e-05
 Reference value :  1.20035e-05
 Reference value :  1.20042e-05
 Reference value :  1.20049e-05
 Reference value :  1.20057e-05
 Reference value :  1.20067e-05
 Reference value :  1.20077e-05
 Reference value :  1.20092e-05
 Reference value :  1.20102e-05
 Reference value :  1.20113e-05
 Reference value :  1.20122e-05
 Reference value :  1.20134e-05
 Reference value :  1.20145e-05
 Reference value :  1.20159e-05
 Reference value :  1.20185e-05
 Reference value :  1.20235e-05
 Reference value :  1.20323e-05
 Reference value :  1.20498e-05
 Reference value :  1.20846e-05
 Reference value :  1.21541e-05
 Reference value :  1.22501e-05
 Reference value :  1.22501e-05
 Reference value :  1.22501e-05
 Reference value :  1.22502e-05
 Reference value :  1.22502e-05
 Reference value :  1.22502e-05
 Reference value :  1.22502e-05
 Reference value :  1.22502e-05
 Reference value :  1.22502e-05
 Reference value :  1.22502e-05
 Reference value :  1.22503e-05
 Reference value :  1.22503e-05
 Reference value :  1.22504e-05
 Reference value :  1.22506e-05
 Reference value :  1.22510e-05
 Reference value :  1.22513e-05
 Reference value :  1.22518e-05
 Reference value :  1.22523e-05
 Reference value :  1.22530e-05
 Reference value :  1.22538e-05
 Reference value :  1.22545e-05
 Reference value :  1.22554e-05
 Reference value :  1.22562e-05
 Reference value :  1.22569e-05
 Reference value :  1.22578e-05
 Reference value :  1.22588e-05
 Reference value :  1.22599e-05
 Reference value :  1.22611e-05
 Reference value :  1.22629e-05
 Reference value :  1.22648e-05
 Reference value :  1.22677e-05
 Reference value :  1.22719e-05
 Reference value :  1.22801e-05
 Reference value :  1.22965e-05
 Reference value :  1.23269e-05
 Reference value :  1.23877e-05
 Reference value :  1.25000e-05
 Reference value :  1.25000e-05
 Reference value :  1.25000e-05
 Reference value :  1.25001e-05
 Reference value :  1.25001e-05
 Reference value :  1.25001e-05
 Reference value :  1.25001e-05
 Reference value :  1.25001e-05
 Reference value :  1.25002e-05
 Reference value :  1.25002e-05
 Reference value :  1.25004e-05
 Reference value :  1.25006e-05
 Reference value :  1.25010e-05
 Reference value :  1.25015e-05
 Reference value :  1.25020e-05
 Reference value :  1.25025e-05
 Reference value :  1.25031e-05
 Reference value :  1.25036e-05
 Reference value :  1.25043e-05
 Reference value :  1.25050e-05
 Reference value :  1.25057e-05
 Reference value :  1.25065e-05
 Reference value :  1.25074e-05
 Reference value :  1.25082e-05
 Reference value :  1.25090e-05
 Reference value :  1.25101e-05
 Reference value :  1.25115e-05
 Reference value :  1.25124e-05
 Reference value :  1.25136e-05
 Reference value :  1.25147e-05
 Reference value :  1.25160e-05
 Reference value :  1.25172e-05
 Reference value :  1.25181e-05
 Reference value :  1.25190e-05
 Reference value :  1.25201e-05
 Reference value :  1.25211e-05
 Reference value :  1.25222e-05
 Reference value :  1.25234e-05
 Reference value :  1.25248e-05
 Reference value :  1.25268e-05
 Reference value :  1.25291e-05
 Reference value :  1.25337e-05
 Reference value :  1.25428e-05
 Reference value :  1.25518e-05
 Reference value :  1.25585e-05
 Reference value :  1.25637e-05
 Reference value :  1.25669e-05
 Reference value :  1.25706e-05
 Reference value :  1.25754e-05
 Reference value :  1.25802e-05
 Reference value :  1.25867e-05
 Reference value :  1.25942e-05
 Reference value :  1.26035e-05
 Reference value :  1.26154e-05
 Reference value :  1.26301e-05
 Reference value :  1.26489e-05
 Reference value :  1.26723e-05
 Reference value :  1.27017e-05
 Reference value :  1.27375e-05
 Reference value :  1.27501e-05
 Reference value :  1.27501e-05
 Reference value :  1.27501e-05
 Reference value :  1.27502e-05
 Reference value :  1.27502e-05
 Reference value :  1.27502e-05
 Reference value :  1.27502e-05
 Reference value :  1.27502e-05
 Reference value :  1.27502e-05
 Reference value :  1.27502e-05
 Reference value :  1.27503e-05
 Reference value :  1.27503e-05
 Reference value :  1.27504e-05
 Reference value :  1.27506e-05
 Reference value :  1.27510e-05
 Reference value :  1.27513e-05
 Reference value :  1.27518e-05
 Reference value :  1.27523e-05
 Reference value :  1.27530e-05
 Reference value :  1.27538e-05
 Reference value :  1.27545e-05
 Reference value :  1.27554e-05
 Reference value :  1.27563e-05
 Reference value :  1.27571e-05
 Reference value :  1.27583e-05
 Reference value :  1.27596e-05
 Reference value :  1.27616e-05
 Reference value :  1.27643e-05
 Reference value :  1.27684e-05
 Reference value :  1.27766e-05
 Reference value :  1.27893e-05
 Reference value :  1.28133e-05
 Reference value :  1.28359e-05
 Reference value :  1.28518e-05
 Reference value :  1.28672e-05
 Reference value :  1.28860e-05
 Reference value :  1.29060e-05
 Reference value :  1.29227e-05
 Reference value :  1.29417e-05
 Reference value :  1.29682e-05
 Reference value :  1.30000e-05
 Reference value :  1.30000e-05
 Reference value :  1.30000e-05
 Reference value :  1.30001e-05
 Reference value :  1.30001e-05
 Reference value :  1.30001e-05
 Reference value :  1.30001e-05
 Reference value :  1.30001e-05
 Reference value :  1.30002e-05
 Reference value :  1.30002e-05
 Reference value :  1.30004e-05
 Reference value :  1.30006e-05
 Reference value :  1.30010e-05
 Reference value :  1.30015e-05
 Reference value :  1.30020e-05
 Reference value :  1.30025e-05
 Reference value :  1.30030e-05
 Reference value :  1.30035e-05
 Reference value :  1.30042e-05
 Reference value :  1.30049e-05
 Reference value :  1.30057e-05
 Reference value :  1.30067e-05
 Reference value :  1.30077e-05
 Reference value :  1.30091e-05
 Reference value :  1.30100e-05
 Reference value :  1.30111e-05
 Reference value :  1.30121e-05
 Reference value :  1.30132e-05
 Reference value :  1.30143e-05
 Reference value :  1.30157e-05
 Reference value :  1.30184e-05
 Reference value :  1.30226e-05
 Reference value :  1.30309e-05
 Reference value :  1.30475e-05
 Reference value :  1.30788e-05
 Reference value :  1.31412e-05
 Reference value :  1.32501e-05
 Reference value :  1.32501e-05
 Reference value :  1.32501e-05
 Reference value :  1.32502e-05
 Reference value :  1.32502e-05
 Reference value :  1.32502e-05
 Reference value :  1.32502e-05
 Reference value :  1.32502e-05
 Reference value :  1.32502e-05
 Reference value :  1.32502e-05
 Reference value :  1.32503e-05
 Reference value :  1.32503e-05
 Reference value :  1.32504e-05
 Reference value :  1.32506e-05
 Reference value :  1.32510e-05
 Reference value :  1.32513e-05
 Reference value :  1.32518e-05
 Reference value :  1.32523e-05
 Reference value :  1.32530e-05
 Reference value :  1.32538e-05
 Reference value :  1.32545e-05
 Reference value :  1.32553e-05
 Reference value :  1.32561e-05
 Reference value :  1.32569e-05
 Reference value :  1.32578e-05
 Reference value :  1.32587e-05
 Reference value :  1.32598e-05
 Reference value :  1.32610e-05
 Reference value :  1.32629e-05
 Reference value :  1.32647e-05
 Reference value :  1.32678e-05
 Reference value :  1.32717e-05
 Reference value :  1.32796e-05
 Reference value :  1.32953e-05
 Reference value :  1.33243e-05
 Reference value :  1.33822e-05
 Reference value :  1.34981e-05
 Reference value :  1.35000e-05
 Reference value :  1.35000e-05
 Reference value :  1.35000e-05
 Reference value :  1.35001e-05
 Reference value :  1.35001e-05
 Reference value :  1.35001e-05
 Reference value :  1.35001e-05
 Reference value :  1.35001e-05
 Reference value :  1.35002e-05
 Reference value :  1.35002e-05
 Reference value :  1.35004e-05
 Reference value :  1.35006e-05
 Reference value :  1.35010e-05
 Reference value :  1.35015e-05
 Reference value :  1.35020e-05
 Reference value :  1.35025e-05
 Reference value :  1.35031e-05
 Reference value :  1.35036e-05
 Reference value :  1.35043e-05
 Reference value :  1.35050e-05
 Reference value :  1.35057e-05
 Reference value :  1.35066e-05
 Reference value :  1.35074e-05
 Reference value :  1.35082e-05
 Reference value :  1.35091e-05
 Reference value :  1.35101e-05
 Reference value :  1.35115e-05
 Reference value :  1.35125e-05
 Reference value :  1.35136e-05
 Reference value :  1.35148e-05
 Reference value :  1.35160e-05
 Reference value :  1.35172e-05
 Reference value :  1.35181e-05
 Reference value :  1.35190e-05
 Reference value :  1.35200e-05
 Reference value :  1.35211e-05
 Reference value :  1.35222e-05
 Reference value :  1.35234e-05
 Reference value :  1.35247e-05
 Reference value :  1.35263e-05
 Reference value :  1.35281e-05
 Reference value :  1.35294e-05
 Reference value :  1.35309e-05
 Reference value :  1.35326e-05
 Reference value :  1.35344e-05
 Reference value :  1.35381e-05
 Reference value :  1.35424e-05
 Reference value :  1.35485e-05
 Reference value :  1.35600e-05
 Reference value :  1.35704e-05
 Reference value :  1.35850e-05
 Reference value :  1.35999e-05
 Reference value :  1.36293e-05
 Reference value :  1.36787e-05
 Reference value :  1.37501e-05
 Reference value :  1.37501e-05
 Reference value :  1.37501e-05
 Reference value :  1.37502e-05
 Reference value :  1.37502e-05
 Reference value :  1.37502e-05
 Reference value :  1.37502e-05
 Reference value :  1.37502e-05
 Reference value :  1.37502e-05
 Reference value :  1.37502e-05
 Reference value :  1.37503e-05
 Reference value :  1.37503e-05
 Reference value :  1.37504e-05
 Reference value :  1.37506e-05
 Reference value :  1.37510e-05
 Reference value :  1.37513e-05
 Reference value :  1.37518e-05
 Reference value :  1.37523e-05
 Reference value :  1.37530e-05
 Reference value :  1.37538e-05
 Reference value :  1.37545e-05
 Reference value :  1.37554e-05
 Reference value :  1.37562e-05
 Reference value :  1.37571e-05
 Reference value :  1.37583e-05
 Reference value :  1.37596e-05
 Reference value :  1.37616e-05
 Reference value :  1.37643e-05
 Reference value :  1.37685e-05
 Reference value :  1.37770e-05
 Reference value :  1.37899e-05
 Reference value :  1.38147e-05
 Reference value :  1.38569e-05
 Reference value :  1.39312e-05
 Reference value :  1.40000e-05
 Reference value :  1.40000e-05
 Reference value :  1.40000e-05
 Reference value :  1.40001e-05
 Reference value :  1.40001e-05
 Reference value :  1.40001e-05
 Reference value :  1.40001e-05
 Reference value :  1.40001e-05
 Reference value :  1.40002e-05
 Reference value :  1.40002e-05
 Reference value :  1.40004e-05
 Reference value :  1.40006e-05
 Reference value :  1.40010e-05
 Reference value :  1.40015e-05
 Reference value :  1.40020e-05
 Reference value :  1.40025e-05
 Reference value :  1.40031e-05
 Reference value :  1.40036e-05
 Reference value :  1.40044e-05
 Reference value :  1.40051e-05
 Reference value :  1.40058e-05
 Reference value :  1.40068e-05
 Reference value :  1.40080e-05
 Reference value :  1.40093e-05
 Reference value :  1.40104e-05
 Reference value :  1.40116e-05
 Reference value :  1.40131e-05
 Reference value :  1.40146e-05
 Reference value :  1.40162e-05
 Reference value :  1.40193e-05
 Reference value :  1.40240e-05
 Reference value :  1.40320e-05
 Reference value :  1.40466e-05
 Reference value :  1.40707e-05
 Reference value :  1.41162e-05
 Reference value :  1.42073e-05
 Reference value :  1.42501e-05
 Reference value :  1.42501e-05
 Reference value :  1.42501e-05
 Reference value :  1.42502e-05
 Reference value :  1.42502e-05
 Reference value :  1.42502e-05
 Reference value :  1.42502e-05
 Reference value :  1.42502e-05
 Reference value :  1.42502e-05
 Reference value :  1.42502e-05
 Reference value :  1.42503e-05
 Reference value :  1.42503e-05
 Reference value :  1.42504e-05
 Reference value :  1.42506e-05
 Reference value :  1.42510e-05
 Reference value :  1.42513e-05
 Reference value :  1.42518e-05
 Reference value :  1.42523e-05
 Reference value :  1.42530e-05
 Reference value :  1.42538e-05
 Reference value :  1.42545e-05
 Reference value :  1.42554e-05
 Reference value :  1.42561e-05
 Reference value :  1.42569e-05
 Reference value :  1.42577e-05
 Reference value :  1.42587e-05
 Reference value :  1.42605e-05
 Reference value :  1.42629e-05
 Reference value :  1.42660e-05
 Reference value :  1.42722e-05
 Reference value :  1.42845e-05
 Reference value :  1.43049e-05
 Reference value :  1.43456e-05
 Reference value :  1.44270e-05
 Reference value :  1.45000e-05
 Reference value :  1.45000e-05
 Reference value :  1.45000e-05
 Reference value :  1.45001e-05
 Reference value :  1.45001e-05
 Reference value :  1.45001e-05
 Reference value :  1.45001e-05
 Reference value :  1.45001e-05
 Reference value :  1.45002e-05
 Reference value :  1.45002e-05
 Reference value :  1.45004e-05
 Reference value :  1.45006e-05
 Reference value :  1.45010e-05
 Reference value :  1.45015e-05
 Reference value :  1.45020e-05
 Reference value :  1.45025e-05
 Reference value :  1.45031e-05
 Reference value :  1.45036e-05
 Reference value :  1.45043e-05
 Reference value :  1.45050e-05
 Reference value :  1.45056e-05
 Reference value :  1.45065e-05
 Reference value :  1.45073e-05
 Reference value :  1.45081e-05
 Reference value :  1.45089e-05
 Reference value :  1.45099e-05
 Reference value :  1.45113e-05
 Reference value :  1.45133e-05
 Reference value :  1.45154e-05
 Reference value :  1.45172e-05
 Reference value :  1.45187e-05
 Reference value :  1.45202e-05
 Reference value :  1.45216e-05
 Reference value :  1.45231e-05
 Reference value :  1.45248e-05
 Reference value :  1.45266e-05
 Reference value :  1.45289e-05
 Reference value :  1.45328e-05
 Reference value :  1.45403e-05
 Reference value :  1.45476e-05
 Reference value :  1.45556e-05
 Reference value :  1.45646e-05
 Reference value :  1.45735e-05
 Reference value :  1.45800e-05
 Reference value :  1.45870e-05
 Reference value :  1.45944e-05
 Reference value :  1.46023e-05
 Reference value :  1.46116e-05
 Reference value :  1.46189e-05
 Reference value :  1.46256e-05
 Reference value :  1.46330e-05
 Reference value :  1.46417e-05
 Reference value :  1.46500e-05
 Reference value :  1.46606e-05
 Reference value :  1.46818e-05
 Reference value :  1.47145e-05
 Reference value :  1.47501e-05
 Reference value :  1.47501e-05
 Reference value :  1.47501e-05
 Reference value :  1.47502e-05
 Reference value :  1.47502e-05
 Reference value :  1.47502e-05
 Reference value :  1.47502e-05
 Reference value :  1.47502e-05
 Reference value :  1.47502e-05
 Reference value :  1.47502e-05
 Reference value :  1.47503e-05
 Reference value :  1.47503e-05
 Reference value :  1.47504e-05
 Reference value :  1.47506e-05
 Reference value :  1.47510e-05
 Reference value :  1.47513e-05
 Reference value :  1.47518e-05
 Reference value :  1.47523e-05
 Reference value :  1.47530e-05
 Reference value :  1.47538e-05
 Reference value :  1.47545e-05
 Reference value :  1.47554e-05
 Reference value :  1.47562e-05
 Reference value :  1.47571e-05
 Reference value :  1.47583e-05
 Reference value :  1.47597e-05
 Reference value :  1.47617e-05
 Reference value :  1.47643e-05
 Reference value :  1.47686e-05
 Reference value :  1.47772e-05
 Reference value :  1.47903e-05
 Reference value :  1.48154e-05
 Reference value :  1.48583e-05
 Reference value :  1.49337e-05
 Reference value :  1.50000e-05
 Reference value :  1.50000e-05
 Reference value :  1.50000e-05
 Reference value :  1.50001e-05
 Reference value :  1.50001e-05
 Reference value :  1.50001e-05
 Reference value :  1.50001e-05
 Reference value :  1.50001e-05
 Reference value :  1.50002e-05
 Reference value :  1.50002e-05
 Reference value :  1.50004e-05
 Reference value :  1.50006e-05
 Reference value :  1.50010e-05
 Reference value :  1.50015e-05
 Reference value :  1.50020e-05
 Reference value :  1.50025e-05
 Reference value :  1.50031e-05
 Reference value :  1.50036e-05
 Reference value :  1.50043e-05
 Reference value :  1.50050e-05
 Reference value :  1.50058e-05
 Reference value :  1.50068e-05
 Reference value :  1.50078e-05
 Reference value :  1.50092e-05
 Reference value :  1.50103e-05
 Reference value :  1.50114e-05
 Reference value :  1.50125e-05
 Reference value :  1.50137e-05
[...]
 Reference value :  1.31751e-04
 Reference value :  1.31751e-04
 Reference value :  1.31752e-04
 Reference value :  1.31752e-04
 Reference value :  1.31753e-04
 Reference value :  1.31754e-04
 Reference value :  1.31755e-04
 Reference value :  1.31755e-04
 Reference value :  1.31756e-04
 Reference value :  1.31757e-04
 Reference value :  1.31758e-04
 Reference value :  1.31760e-04
 Reference value :  1.31762e-04
 Reference value :  1.31764e-04
 Reference value :  1.31768e-04
 Reference value :  1.31776e-04
 Reference value :  1.31789e-04
 Reference value :  1.31812e-04
 Reference value :  1.31854e-04
 Reference value :  1.31926e-04
 Reference value :  1.32000e-04
 Reference value :  1.32000e-04
 Reference value :  1.32000e-04
 Reference value :  1.32000e-04
 Reference value :  1.32000e-04
 Reference value :  1.32000e-04
 Reference value :  1.32000e-04
 Reference value :  1.32000e-04
 Reference value :  1.32000e-04
 Reference value :  1.32000e-04
 Reference value :  1.32000e-04
 Reference value :  1.32001e-04
 Reference value :  1.32001e-04
 Reference value :  1.32001e-04
 Reference value :  1.32002e-04
 Reference value :  1.32002e-04
 Reference value :  1.32003e-04
 Reference value :  1.32004e-04
 Reference value :  1.32004e-04
 Reference value :  1.32005e-04
 Reference value :  1.32006e-04
 Reference value :  1.32007e-04
 Reference value :  1.32008e-04
 Reference value :  1.32009e-04
 Reference value :  1.32010e-04
 Reference value :  1.32011e-04
 Reference value :  1.32013e-04
 Reference value :  1.32014e-04
 Reference value :  1.32015e-04
 Reference value :  1.32017e-04
 Reference value :  1.32020e-04
 Reference value :  1.32024e-04
 Reference value :  1.32031e-04
 Reference value :  1.32045e-04
 Reference value :  1.32068e-04
 Reference value :  1.32112e-04
 Reference value :  1.32189e-04
 Reference value :  1.32250e-04
 Reference value :  1.32250e-04
 Reference value :  1.32250e-04
 Reference value :  1.32250e-04
 Reference value :  1.32250e-04
 Reference value :  1.32250e-04
 Reference value :  1.32250e-04
 Reference value :  1.32250e-04
 Reference value :  1.32250e-04
 Reference value :  1.32250e-04
 Reference value :  1.32250e-04
 Reference value :  1.32250e-04
 Reference value :  1.32250e-04
 Reference value :  1.32251e-04
 Reference value :  1.32251e-04
 Reference value :  1.32251e-04
 Reference value :  1.32252e-04
 Reference value :  1.32252e-04
 Reference value :  1.32253e-04
 Reference value :  1.32254e-04
 Reference value :  1.32255e-04
 Reference value :  1.32255e-04
 Reference value :  1.32256e-04
 Reference value :  1.32257e-04
 Reference value :  1.32258e-04
 Reference value :  1.32259e-04
 Reference value :  1.32260e-04
 Reference value :  1.32263e-04
 Reference value :  1.32266e-04
 Reference value :  1.32272e-04
 Reference value :  1.32283e-04
 Reference value :  1.32303e-04
 Reference value :  1.32342e-04
 Reference value :  1.32421e-04
 Reference value :  1.32500e-04
 Reference value :  1.32500e-04
 Reference value :  1.32500e-04
 Reference value :  1.32500e-04
 Reference value :  1.32500e-04
 Reference value :  1.32500e-04
 Reference value :  1.32500e-04
 Reference value :  1.32500e-04
 Reference value :  1.32500e-04
 Reference value :  1.32500e-04
 Reference value :  1.32500e-04
 Reference value :  1.32501e-04
 Reference value :  1.32501e-04
 Reference value :  1.32501e-04
 Reference value :  1.32502e-04
 Reference value :  1.32502e-04
 Reference value :  1.32503e-04
 Reference value :  1.32504e-04
 Reference value :  1.32504e-04
 Reference value :  1.32505e-04
 Reference value :  1.32506e-04
 Reference value :  1.32507e-04
 Reference value :  1.32507e-04
 Reference value :  1.32508e-04
 Reference value :  1.32509e-04
 Reference value :  1.32510e-04
 Reference value :  1.32512e-04
 Reference value :  1.32514e-04
 Reference value :  1.32516e-04
 Reference value :  1.32517e-04
 Reference value :  1.32519e-04
 Reference value :  1.32520e-04
 Reference value :  1.32521e-04
 Reference value :  1.32523e-04
 Reference value :  1.32524e-04
 Reference value :  1.32526e-04
 Reference value :  1.32528e-04
 Reference value :  1.32531e-04
 Reference value :  1.32536e-04
 Reference value :  1.32544e-04
 Reference value :  1.32556e-04
 Reference value :  1.32569e-04
 Reference value :  1.32577e-04
 Reference value :  1.32587e-04
 Reference value :  1.32598e-04
 Reference value :  1.32618e-04
 Reference value :  1.32646e-04
 Reference value :  1.32701e-04
 Reference value :  1.32750e-04
 Reference value :  1.32750e-04
 Reference value :  1.32750e-04
 Reference value :  1.32750e-04
 Reference value :  1.32750e-04
 Reference value :  1.32750e-04
 Reference value :  1.32750e-04
 Reference value :  1.32750e-04
 Reference value :  1.32750e-04
 Reference value :  1.32750e-04
 Reference value :  1.32750e-04
 Reference value :  1.32750e-04
 Reference value :  1.32750e-04
 Reference value :  1.32751e-04
 Reference value :  1.32751e-04
 Reference value :  1.32751e-04
 Reference value :  1.32752e-04
 Reference value :  1.32752e-04
 Reference value :  1.32753e-04
 Reference value :  1.32754e-04
 Reference value :  1.32755e-04
 Reference value :  1.32755e-04
 Reference value :  1.32756e-04
 Reference value :  1.32757e-04
 Reference value :  1.32758e-04
 Reference value :  1.32760e-04
 Reference value :  1.32762e-04
 Reference value :  1.32764e-04
 Reference value :  1.32769e-04
 Reference value :  1.32777e-04
 Reference value :  1.32790e-04
 Reference value :  1.32815e-04
 Reference value :  1.32858e-04
 Reference value :  1.32933e-04
 Reference value :  1.33000e-04
 Reference value :  1.33000e-04
 Reference value :  1.33000e-04
 Reference value :  1.33000e-04
 Reference value :  1.33000e-04
 Reference value :  1.33000e-04
 Reference value :  1.33000e-04
 Reference value :  1.33000e-04
 Reference value :  1.33000e-04
 Reference value :  1.33000e-04
 Reference value :  1.33000e-04
 Reference value :  1.33001e-04
 Reference value :  1.33001e-04
 Reference value :  1.33001e-04
 Reference value :  1.33002e-04
 Reference value :  1.33002e-04
 Reference value :  1.33003e-04
 Reference value :  1.33004e-04
 Reference value :  1.33004e-04
 Reference value :  1.33005e-04
 Reference value :  1.33006e-04
 Reference value :  1.33007e-04
 Reference value :  1.33008e-04
 Reference value :  1.33009e-04
 Reference value :  1.33010e-04
 Reference value :  1.33012e-04
 Reference value :  1.33013e-04
 Reference value :  1.33014e-04
 Reference value :  1.33016e-04
 Reference value :  1.33018e-04
 Reference value :  1.33022e-04
 Reference value :  1.33028e-04
 Reference value :  1.33040e-04
 Reference value :  1.33059e-04
 Reference value :  1.33094e-04
 Reference value :  1.33156e-04
 Reference value :  1.33250e-04
 Reference value :  1.33250e-04
 Reference value :  1.33250e-04
 Reference value :  1.33250e-04
 Reference value :  1.33250e-04
 Reference value :  1.33250e-04
 Reference value :  1.33250e-04
 Reference value :  1.33250e-04
 Reference value :  1.33250e-04
 Reference value :  1.33250e-04
 Reference value :  1.33250e-04
 Reference value :  1.33250e-04
 Reference value :  1.33250e-04
 Reference value :  1.33251e-04
 Reference value :  1.33251e-04
 Reference value :  1.33251e-04
 Reference value :  1.33252e-04
 Reference value :  1.33252e-04
 Reference value :  1.33253e-04
 Reference value :  1.33254e-04
 Reference value :  1.33255e-04
 Reference value :  1.33255e-04
 Reference value :  1.33256e-04
 Reference value :  1.33257e-04
 Reference value :  1.33258e-04
 Reference value :  1.33259e-04
 Reference value :  1.33260e-04
 Reference value :  1.33263e-04
 Reference value :  1.33266e-04
 Reference value :  1.33272e-04
 Reference value :  1.33284e-04
 Reference value :  1.33305e-04
 Reference value :  1.33346e-04
 Reference value :  1.33427e-04
 Reference value :  1.33500e-04
 Reference value :  1.33500e-04
 Reference value :  1.33500e-04
 Reference value :  1.33500e-04
 Reference value :  1.33500e-04
 Reference value :  1.33500e-04
 Reference value :  1.33500e-04
 Reference value :  1.33500e-04
 Reference value :  1.33500e-04
 Reference value :  1.33500e-04
 Reference value :  1.33500e-04
 Reference value :  1.33501e-04
 Reference value :  1.33501e-04
 Reference value :  1.33501e-04
 Reference value :  1.33502e-04
 Reference value :  1.33502e-04
 Reference value :  1.33503e-04
 Reference value :  1.33504e-04
 Reference value :  1.33504e-04
 Reference value :  1.33505e-04
 Reference value :  1.33506e-04
 Reference value :  1.33507e-04
 Reference value :  1.33507e-04
 Reference value :  1.33508e-04
 Reference value :  1.33509e-04
 Reference value :  1.33510e-04
 Reference value :  1.33511e-04
 Reference value :  1.33513e-04
 Reference value :  1.33515e-04
 Reference value :  1.33517e-04
 Reference value :  1.33519e-04
 Reference value :  1.33520e-04
 Reference value :  1.33522e-04
 Reference value :  1.33523e-04
 Reference value :  1.33525e-04
 Reference value :  1.33527e-04
 Reference value :  1.33529e-04
 Reference value :  1.33533e-04
 Reference value :  1.33540e-04
 Reference value :  1.33548e-04
 Reference value :  1.33552e-04
 Reference value :  1.33558e-04
 Reference value :  1.33564e-04
 Reference value :  1.33571e-04
 Reference value :  1.33580e-04
 Reference value :  1.33594e-04
 Reference value :  1.33622e-04
 Reference value :  1.33664e-04
 Reference value :  1.33749e-04
 Reference value :  1.33750e-04
 Reference value :  1.33750e-04
 Reference value :  1.33750e-04
 Reference value :  1.33750e-04
 Reference value :  1.33750e-04
 Reference value :  1.33750e-04
 Reference value :  1.33750e-04
 Reference value :  1.33750e-04
 Reference value :  1.33750e-04
 Reference value :  1.33750e-04
 Reference value :  1.33750e-04
 Reference value :  1.33750e-04
 Reference value :  1.33750e-04
 Reference value :  1.33751e-04
 Reference value :  1.33751e-04
 Reference value :  1.33751e-04
 Reference value :  1.33752e-04
 Reference value :  1.33752e-04
 Reference value :  1.33753e-04
 Reference value :  1.33754e-04
 Reference value :  1.33755e-04
 Reference value :  1.33755e-04
 Reference value :  1.33756e-04
 Reference value :  1.33757e-04
 Reference value :  1.33758e-04
 Reference value :  1.33759e-04
 Reference value :  1.33761e-04
 Reference value :  1.33764e-04
 Reference value :  1.33768e-04
 Reference value :  1.33775e-04
 Reference value :  1.33787e-04
 Reference value :  1.33810e-04
 Reference value :  1.33850e-04
 Reference value :  1.33921e-04
 Reference value :  1.34000e-04
 Reference value :  1.34000e-04
 Reference value :  1.34000e-04
 Reference value :  1.34000e-04
 Reference value :  1.34000e-04
 Reference value :  1.34000e-04
 Reference value :  1.34000e-04
 Reference value :  1.34000e-04
 Reference value :  1.34000e-04
 Reference value :  1.34000e-04
 Reference value :  1.34000e-04
 Reference value :  1.34001e-04
 Reference value :  1.34001e-04
 Reference value :  1.34001e-04
 Reference value :  1.34002e-04
 Reference value :  1.34002e-04
 Reference value :  1.34003e-04
 Reference value :  1.34004e-04
 Reference value :  1.34004e-04
 Reference value :  1.34005e-04
 Reference value :  1.34006e-04
 Reference value :  1.34007e-04
 Reference value :  1.34008e-04
 Reference value :  1.34009e-04
 Reference value :  1.34010e-04
 Reference value :  1.34011e-04
 Reference value :  1.34013e-04
 Reference value :  1.34014e-04
 Reference value :  1.34015e-04
 Reference value :  1.34017e-04
 Reference value :  1.34020e-04
 Reference value :  1.34024e-04
 Reference value :  1.34032e-04
 Reference value :  1.34046e-04
 Reference value :  1.34070e-04
 Reference value :  1.34114e-04
 Reference value :  1.34193e-04
 Reference value :  1.34250e-04
 Reference value :  1.34250e-04
 Reference value :  1.34250e-04
 Reference value :  1.34250e-04
 Reference value :  1.34250e-04
 Reference value :  1.34250e-04
 Reference value :  1.34250e-04
 Reference value :  1.34250e-04
 Reference value :  1.34250e-04
 Reference value :  1.34250e-04
 Reference value :  1.34250e-04
 Reference value :  1.34250e-04
 Reference value :  1.34250e-04
 Reference value :  1.34251e-04
 Reference value :  1.34251e-04
 Reference value :  1.34251e-04
 Reference value :  1.34252e-04
 Reference value :  1.34252e-04
 Reference value :  1.34253e-04
 Reference value :  1.34254e-04
 Reference value :  1.34255e-04
 Reference value :  1.34255e-04
 Reference value :  1.34256e-04
 Reference value :  1.34257e-04
 Reference value :  1.34258e-04
 Reference value :  1.34259e-04
 Reference value :  1.34260e-04
 Reference value :  1.34263e-04
 Reference value :  1.34266e-04
 Reference value :  1.34272e-04
 Reference value :  1.34283e-04
 Reference value :  1.34303e-04
 Reference value :  1.34343e-04
 Reference value :  1.34421e-04
 Reference value :  1.34500e-04
 Reference value :  1.34500e-04
 Reference value :  1.34500e-04
 Reference value :  1.34500e-04
 Reference value :  1.34500e-04
 Reference value :  1.34500e-04
 Reference value :  1.34500e-04
 Reference value :  1.34500e-04
 Reference value :  1.34500e-04
 Reference value :  1.34500e-04
 Reference value :  1.34500e-04
 Reference value :  1.34501e-04
 Reference value :  1.34501e-04
 Reference value :  1.34501e-04
 Reference value :  1.34502e-04
 Reference value :  1.34502e-04
 Reference value :  1.34503e-04
 Reference value :  1.34504e-04
 Reference value :  1.34504e-04
 Reference value :  1.34505e-04
 Reference value :  1.34506e-04
 Reference value :  1.34507e-04
 Reference value :  1.34507e-04
 Reference value :  1.34508e-04
 Reference value :  1.34509e-04
 Reference value :  1.34510e-04
 Reference value :  1.34512e-04
 Reference value :  1.34514e-04
 Reference value :  1.34516e-04
 Reference value :  1.34517e-04
 Reference value :  1.34519e-04
 Reference value :  1.34520e-04
 Reference value :  1.34522e-04
 Reference value :  1.34523e-04
 Reference value :  1.34525e-04
 Reference value :  1.34527e-04
 Reference value :  1.34529e-04
 Reference value :  1.34533e-04
 Reference value :  1.34535e-04
 Reference value :  1.34537e-04
 Reference value :  1.34540e-04
 Reference value :  1.34545e-04
 Reference value :  1.34551e-04
 Reference value :  1.34563e-04
 Reference value :  1.34575e-04
 Reference value :  1.34600e-04
 Reference value :  1.34649e-04
 Reference value :  1.34746e-04
 Reference value :  1.34750e-04
 Reference value :  1.34750e-04
 Reference value :  1.34750e-04
 Reference value :  1.34750e-04
 Reference value :  1.34750e-04
 Reference value :  1.34750e-04
 Reference value :  1.34750e-04
 Reference value :  1.34750e-04
 Reference value :  1.34750e-04
 Reference value :  1.34750e-04
 Reference value :  1.34750e-04
 Reference value :  1.34750e-04
 Reference value :  1.34750e-04
 Reference value :  1.34751e-04
 Reference value :  1.34751e-04
 Reference value :  1.34751e-04
 Reference value :  1.34752e-04
 Reference value :  1.34752e-04
 Reference value :  1.34753e-04
 Reference value :  1.34754e-04
 Reference value :  1.34754e-04
 Reference value :  1.34755e-04
 Reference value :  1.34756e-04
 Reference value :  1.34757e-04
 Reference value :  1.34758e-04
 Reference value :  1.34759e-04
 Reference value :  1.34761e-04
 Reference value :  1.34764e-04
 Reference value :  1.34767e-04
 Reference value :  1.34774e-04
 Reference value :  1.34787e-04
 Reference value :  1.34808e-04
 Reference value :  1.34849e-04
 Reference value :  1.34931e-04
 Reference value :  1.35000e-04
 Reference value :  1.35000e-04
 Reference value :  1.35000e-04
 Reference value :  1.35000e-04
 Reference value :  1.35000e-04
 Reference value :  1.35000e-04
 Reference value :  1.35000e-04
 Reference value :  1.35000e-04
 Reference value :  1.35000e-04
 Reference value :  1.35000e-04
 Reference value :  1.35000e-04
 Reference value :  1.35001e-04
 Reference value :  1.35001e-04
 Reference value :  1.35001e-04
 Reference value :  1.35002e-04
 Reference value :  1.35002e-04
 Reference value :  1.35003e-04
 Reference value :  1.35004e-04
 Reference value :  1.35004e-04
 Reference value :  1.35005e-04
 Reference value :  1.35006e-04
 Reference value :  1.35007e-04
 Reference value :  1.35008e-04
 Reference value :  1.35009e-04
 Reference value :  1.35010e-04
 Reference value :  1.35011e-04
 Reference value :  1.35012e-04
 Reference value :  1.35014e-04
 Reference value :  1.35015e-04
 Reference value :  1.35016e-04
 Reference value :  1.35019e-04
 Reference value :  1.35023e-04
 Reference value :  1.35031e-04
 Reference value :  1.35047e-04
 Reference value :  1.35076e-04
 Reference value :  1.35134e-04
 Reference value :  1.35249e-04
 Reference value :  1.35250e-04
 Reference value :  1.35250e-04
 Reference value :  1.35250e-04
 Reference value :  1.35250e-04
 Reference value :  1.35250e-04
 Reference value :  1.35250e-04
 Reference value :  1.35250e-04
 Reference value :  1.35250e-04
 Reference value :  1.35250e-04
 Reference value :  1.35250e-04
 Reference value :  1.35250e-04
 Reference value :  1.35250e-04
 Reference value :  1.35250e-04
 Reference value :  1.35251e-04
 Reference value :  1.35251e-04
 Reference value :  1.35251e-04
 Reference value :  1.35252e-04
 Reference value :  1.35252e-04
 Reference value :  1.35253e-04
 Reference value :  1.35254e-04
 Reference value :  1.35254e-04
 Reference value :  1.35255e-04
 Reference value :  1.35256e-04
 Reference value :  1.35257e-04
 Reference value :  1.35258e-04
 Reference value :  1.35259e-04
 Reference value :  1.35260e-04
 Reference value :  1.35263e-04
 Reference value :  1.35266e-04
 Reference value :  1.35271e-04
 Reference value :  1.35282e-04
 Reference value :  1.35302e-04
 Reference value :  1.35340e-04
 Reference value :  1.35417e-04
 Reference value :  1.35500e-04
 Reference value :  1.35500e-04
 Reference value :  1.35500e-04
 Reference value :  1.35500e-04
 Reference value :  1.35500e-04
 Reference value :  1.35500e-04
 Reference value :  1.35500e-04
 Reference value :  1.35500e-04
 Reference value :  1.35500e-04
 Reference value :  1.35500e-04
 Reference value :  1.35500e-04
 Reference value :  1.35501e-04
 Reference value :  1.35501e-04
 Reference value :  1.35501e-04
 Reference value :  1.35502e-04
 Reference value :  1.35502e-04
 Reference value :  1.35503e-04
 Reference value :  1.35504e-04
 Reference value :  1.35504e-04
 Reference value :  1.35505e-04
 Reference value :  1.35506e-04
 Reference value :  1.35507e-04
 Reference value :  1.35507e-04
 Reference value :  1.35508e-04
 Reference value :  1.35509e-04
 Reference value :  1.35510e-04
 Reference value :  1.35512e-04
 Reference value :  1.35514e-04
 Reference value :  1.35516e-04
 Reference value :  1.35518e-04
 Reference value :  1.35520e-04
 Reference value :  1.35523e-04
 Reference value :  1.35526e-04
 Reference value :  1.35530e-04
 Reference value :  1.35536e-04
 Reference value :  1.35545e-04
 Reference value :  1.35560e-04
 Reference value :  1.35584e-04
 Reference value :  1.35623e-04
 Reference value :  1.35699e-04
 Reference value :  1.35750e-04
 Reference value :  1.35750e-04
 Reference value :  1.35750e-04
 Reference value :  1.35750e-04
 Reference value :  1.35750e-04
 Reference value :  1.35750e-04
 Reference value :  1.35750e-04
 Reference value :  1.35750e-04
 Reference value :  1.35750e-04
 Reference value :  1.35750e-04
 Reference value :  1.35750e-04
 Reference value :  1.35750e-04
 Reference value :  1.35750e-04
 Reference value :  1.35751e-04
 Reference value :  1.35751e-04
 Reference value :  1.35751e-04
 Reference value :  1.35752e-04
 Reference value :  1.35752e-04
 Reference value :  1.35753e-04
 Reference value :  1.35754e-04
 Reference value :  1.35755e-04
 Reference value :  1.35756e-04
 Reference value :  1.35757e-04
 Reference value :  1.35758e-04
 Reference value :  1.35760e-04
 Reference value :  1.35762e-04
 Reference value :  1.35765e-04
 Reference value :  1.35769e-04
 Reference value :  1.35778e-04
 Reference value :  1.35796e-04
 Reference value :  1.35830e-04
 Reference value :  1.35900e-04
 Reference value :  1.36000e-04
No. of Data Rows : 21236
ngspice-44 done
