
Note: Compatibility modes selected: hs a


Circuit: ** sch_path: /home/audrey/cace/sar-adc-using-sky130-pdk/runs/run_2025-08-29_18-13-25/parameters/power/run_09/power_consumption.sch

option SCALE: Scale is set to 1e-06 for instance and model parameters
option SCALE: Scale is set to 1e-06 for instance and model parameters
option SCALE: Scale is set to 1e-06 for instance and model parameters
option SCALE: Scale is set to 1e-06 for instance and model parameters
Doing analysis at TEMP = 27.000000 and TNOM = 27.000000

Using KLU as Direct Linear Solver
Operating point simulation skipped by 'uic',
  now using transient initial conditions.
 Reference value :  5.00000e-12
 Reference value :  5.14000e-12
 Reference value :  5.42000e-12
 Reference value :  5.98000e-12
 Reference value :  8.77159e-12
 Reference value :  2.31950e-11
 Reference value :  6.31926e-11
 Reference value :  1.95931e-10
 Reference value :  4.88034e-10
 Reference value :  5.00000e-10
 Reference value :  5.14517e-10
 Reference value :  5.98107e-10
 Reference value :  9.25449e-10
 Reference value :  1.18183e-09
 Reference value :  2.01521e-09
 Reference value :  3.20333e-09
 Reference value :  4.93622e-09
 Reference value :  6.85864e-09
 Reference value :  7.55463e-09
 Reference value :  8.20964e-09
 Reference value :  8.88671e-09
 Reference value :  1.05237e-08
 Reference value :  1.27279e-08
 Reference value :  1.44438e-08
 Reference value :  1.66316e-08
 Reference value :  2.08570e-08
 Reference value :  2.95818e-08
 Reference value :  4.83533e-08
 Reference value :  7.67324e-08
 Reference value :  1.62446e-07
 Reference value :  4.11349e-07
 Reference value :  5.28983e-07
 Reference value :  7.02882e-07
 Reference value :  8.65167e-07
 Reference value :  1.00050e-06
 Reference value :  1.00065e-06
 Reference value :  1.00100e-06
 Reference value :  1.00109e-06
 Reference value :  1.00140e-06
 Reference value :  1.00201e-06
 Reference value :  1.00288e-06
 Reference value :  1.00354e-06
 Reference value :  1.00403e-06
 Reference value :  1.00458e-06
 Reference value :  1.00567e-06
 Reference value :  1.00737e-06
 Reference value :  1.01031e-06
 Reference value :  1.02737e-06
 Reference value :  1.16354e-06
 Reference value :  1.35873e-06
 Reference value :  2.00005e-06
 Reference value :  2.00053e-06
 Reference value :  2.00101e-06
 Reference value :  2.00179e-06
 Reference value :  2.00311e-06
 Reference value :  2.00420e-06
 Reference value :  2.00675e-06
 Reference value :  2.01003e-06
 Reference value :  2.01307e-06
 Reference value :  2.01637e-06
 Reference value :  2.02717e-06
 Reference value :  2.05320e-06
 Reference value :  2.15261e-06
 Reference value :  3.00050e-06
 Reference value :  3.00065e-06
 Reference value :  3.00100e-06
 Reference value :  3.00110e-06
 Reference value :  3.00124e-06
 Reference value :  3.00178e-06
 Reference value :  3.00211e-06
 Reference value :  3.00250e-06
 Reference value :  3.00357e-06
 Reference value :  3.00402e-06
 Reference value :  3.00454e-06
 Reference value :  3.00501e-06
 Reference value :  3.00625e-06
 Reference value :  3.00775e-06
 Reference value :  3.00980e-06
 Reference value :  3.01337e-06
 Reference value :  3.02170e-06
 Reference value :  3.04465e-06
 Reference value :  3.13095e-06
 Reference value :  3.46103e-06
 Reference value :  4.00005e-06
 Reference value :  4.00035e-06
 Reference value :  4.00053e-06
 Reference value :  4.00060e-06
 Reference value :  4.00101e-06
 Reference value :  4.00178e-06
 Reference value :  4.00261e-06
 Reference value :  4.00359e-06
 Reference value :  4.00404e-06
 Reference value :  4.00492e-06
 Reference value :  4.00603e-06
 Reference value :  4.00756e-06
 Reference value :  4.00937e-06
 Reference value :  4.01024e-06
 Reference value :  4.01109e-06
 Reference value :  4.01265e-06
 Reference value :  4.01337e-06
 Reference value :  4.01435e-06
 Reference value :  4.01524e-06
 Reference value :  4.01718e-06
 Reference value :  4.01865e-06
 Reference value :  4.01974e-06
 Reference value :  4.02234e-06
 Reference value :  4.02380e-06
 Reference value :  4.02552e-06
 Reference value :  4.03163e-06
 Reference value :  4.04984e-06
 Reference value :  4.07202e-06
 Reference value :  4.10708e-06
 Reference value :  4.21518e-06
 Reference value :  4.43892e-06
 Reference value :  4.70805e-06
 Reference value :  5.00050e-06
 Reference value :  5.00055e-06
 Reference value :  5.00085e-06
 Reference value :  5.00103e-06
 Reference value :  5.00124e-06
 Reference value :  5.00178e-06
 Reference value :  5.00212e-06
 Reference value :  5.00296e-06
 Reference value :  5.00404e-06
 Reference value :  5.00511e-06
 Reference value :  5.00645e-06
 Reference value :  5.00903e-06
 Reference value :  5.02089e-06
 Reference value :  5.05860e-06
 Reference value :  5.41056e-06
 Reference value :  6.00005e-06
 Reference value :  6.00035e-06
 Reference value :  6.00053e-06
 Reference value :  6.00101e-06
 Reference value :  6.00178e-06
 Reference value :  6.00219e-06
 Reference value :  6.00306e-06
 Reference value :  6.00413e-06
 Reference value :  6.00548e-06
 Reference value :  6.00608e-06
 Reference value :  6.00763e-06
 Reference value :  6.00939e-06
 Reference value :  6.01489e-06
 Reference value :  6.03927e-06
 Reference value :  6.21753e-06
 Reference value :  7.00050e-06
 Reference value :  7.00085e-06
 Reference value :  7.00110e-06
 Reference value :  7.00151e-06
 Reference value :  7.00212e-06
 Reference value :  7.00295e-06
 Reference value :  7.00402e-06
 Reference value :  7.00501e-06
 Reference value :  7.00624e-06
 Reference value :  7.01037e-06
 Reference value :  7.02830e-06
 Reference value :  7.16839e-06
 Reference value :  8.00000e-06
 Reference value :  8.00015e-06
 Reference value :  8.00050e-06
 Reference value :  8.00060e-06
 Reference value :  8.00101e-06
 Reference value :  8.00178e-06
 Reference value :  8.00219e-06
 Reference value :  8.00306e-06
 Reference value :  8.00405e-06
 Reference value :  8.00494e-06
 Reference value :  8.00606e-06
 Reference value :  8.00782e-06
 Reference value :  8.01057e-06
 Reference value :  8.01173e-06
 Reference value :  8.01266e-06
 Reference value :  8.01352e-06
 Reference value :  8.01458e-06
 Reference value :  8.01661e-06
 Reference value :  8.01946e-06
 Reference value :  8.02935e-06
 Reference value :  8.07374e-06
 Reference value :  8.28254e-06
 Reference value :  8.71739e-06
 Reference value :  9.00065e-06
 Reference value :  9.00100e-06
 Reference value :  9.00110e-06
 Reference value :  9.00151e-06
 Reference value :  9.00212e-06
 Reference value :  9.00295e-06
 Reference value :  9.00358e-06
 Reference value :  9.00404e-06
 Reference value :  9.00510e-06
 Reference value :  9.00644e-06
 Reference value :  9.01139e-06
 Reference value :  9.03328e-06
 Reference value :  9.20838e-06
 Reference value :  1.00000e-05
 Reference value :  1.00003e-05
 Reference value :  1.00006e-05
 Reference value :  1.00010e-05
 Reference value :  1.00018e-05
 Reference value :  1.00026e-05
 Reference value :  1.00031e-05
 Reference value :  1.00041e-05
 Reference value :  1.00055e-05
 Reference value :  1.00061e-05
 Reference value :  1.00076e-05
 Reference value :  1.00094e-05
 Reference value :  1.00121e-05
 Reference value :  1.00258e-05
 Reference value :  1.00642e-05
 Reference value :  1.02107e-05
 Reference value :  1.07964e-05
 Reference value :  1.10006e-05
 Reference value :  1.10010e-05
 Reference value :  1.10012e-05
 Reference value :  1.10018e-05
 Reference value :  1.10021e-05
 Reference value :  1.10030e-05
 Reference value :  1.10036e-05
 Reference value :  1.10040e-05
 Reference value :  1.10050e-05
 Reference value :  1.10062e-05
 Reference value :  1.10104e-05
 Reference value :  1.10183e-05
 Reference value :  1.10887e-05
 Reference value :  1.16520e-05
 Reference value :  1.20001e-05
 Reference value :  1.20005e-05
 Reference value :  1.20010e-05
 Reference value :  1.20022e-05
 Reference value :  1.20031e-05
 Reference value :  1.20040e-05
 Reference value :  1.20049e-05
 Reference value :  1.20067e-05
 Reference value :  1.20092e-05
 Reference value :  1.20117e-05
 Reference value :  1.20127e-05
 Reference value :  1.20146e-05
 Reference value :  1.20166e-05
 Reference value :  1.20195e-05
 Reference value :  1.20293e-05
 Reference value :  1.20507e-05
 Reference value :  1.21090e-05
 Reference value :  1.22214e-05
 Reference value :  1.26213e-05
 Reference value :  1.30007e-05
 Reference value :  1.30010e-05
 Reference value :  1.30015e-05
 Reference value :  1.30021e-05
 Reference value :  1.30030e-05
 Reference value :  1.30040e-05
 Reference value :  1.30051e-05
 Reference value :  1.30064e-05
 Reference value :  1.30114e-05
 Reference value :  1.30333e-05
 Reference value :  1.34083e-05
 Reference value :  1.40000e-05
 Reference value :  1.40005e-05
 Reference value :  1.40007e-05
 Reference value :  1.40014e-05
 Reference value :  1.40022e-05
 Reference value :  1.40031e-05
 Reference value :  1.40041e-05
 Reference value :  1.40055e-05
 Reference value :  1.40068e-05
 Reference value :  1.40085e-05
 Reference value :  1.40108e-05
 Reference value :  1.40189e-05
 Reference value :  1.40637e-05
 Reference value :  1.47852e-05
 Reference value :  1.50007e-05
 Reference value :  1.50010e-05
 Reference value :  1.50012e-05
 Reference value :  1.50018e-05
 Reference value :  1.50021e-05
 Reference value :  1.50030e-05
 Reference value :  1.50040e-05
 Reference value :  1.50050e-05
 Reference value :  1.50062e-05
 Reference value :  1.50085e-05
 Reference value :  1.50133e-05
 Reference value :  1.50485e-05
 Reference value :  1.53301e-05
 Reference value :  1.60000e-05
 Reference value :  1.60004e-05
 Reference value :  1.60005e-05
 Reference value :  1.60007e-05
 Reference value :  1.60014e-05
 Reference value :  1.60022e-05
 Reference value :  1.60031e-05
 Reference value :  1.60040e-05
 Reference value :  1.60049e-05
 Reference value :  1.60061e-05
 Reference value :  1.60078e-05
 Reference value :  1.60106e-05
 Reference value :  1.60129e-05
 Reference value :  1.60149e-05
 Reference value :  1.60171e-05
 Reference value :  1.60223e-05
 Reference value :  1.60325e-05
 Reference value :  1.60590e-05
 Reference value :  1.60910e-05
 Reference value :  1.61274e-05
 Reference value :  1.62386e-05
 Reference value :  1.69877e-05
 Reference value :  1.70007e-05
 Reference value :  1.70010e-05
 Reference value :  1.70012e-05
 Reference value :  1.70017e-05
 Reference value :  1.70020e-05
 Reference value :  1.70029e-05
 Reference value :  1.70041e-05
 Reference value :  1.70046e-05
 Reference value :  1.70057e-05
 Reference value :  1.70072e-05
 Reference value :  1.70138e-05
 Reference value :  1.70524e-05
 Reference value :  1.73615e-05
 Reference value :  1.80000e-05
 Reference value :  1.80004e-05
 Reference value :  1.80005e-05
 Reference value :  1.80010e-05
 Reference value :  1.80019e-05
 Reference value :  1.80023e-05
 Reference value :  1.80032e-05
 Reference value :  1.80042e-05
 Reference value :  1.80056e-05
 Reference value :  1.80062e-05
 Reference value :  1.80076e-05
 Reference value :  1.80093e-05
 Reference value :  1.80114e-05
 Reference value :  1.80233e-05
 Reference value :  1.80984e-05
 Reference value :  1.86886e-05
 Reference value :  1.90007e-05
 Reference value :  1.90010e-05
 Reference value :  1.90012e-05
 Reference value :  1.90017e-05
 Reference value :  1.90020e-05
 Reference value :  1.90029e-05
 Reference value :  1.90041e-05
 Reference value :  1.90046e-05
 Reference value :  1.90057e-05
 Reference value :  1.90072e-05
 Reference value :  1.90107e-05
 Reference value :  1.90305e-05
 Reference value :  1.91814e-05
 Reference value :  2.00001e-05
 Reference value :  2.00005e-05
 Reference value :  2.00007e-05
 Reference value :  2.00015e-05
 Reference value :  2.00019e-05
 Reference value :  2.00023e-05
 Reference value :  2.00032e-05
 Reference value :  2.00042e-05
 Reference value :  2.00051e-05
 Reference value :  2.00062e-05
 Reference value :  2.00082e-05
 Reference value :  2.00110e-05
 Reference value :  2.00133e-05
 Reference value :  2.00153e-05
 Reference value :  2.00174e-05
 Reference value :  2.00206e-05
 Reference value :  2.00281e-05
 Reference value :  2.00598e-05
 Reference value :  2.01235e-05
 Reference value :  2.02199e-05
 Reference value :  2.03748e-05
 Reference value :  2.10005e-05
 Reference value :  2.10008e-05
 Reference value :  2.10010e-05
 Reference value :  2.10012e-05
 Reference value :  2.10014e-05
 Reference value :  2.10020e-05
 Reference value :  2.10029e-05
 Reference value :  2.10041e-05
 Reference value :  2.10046e-05
 Reference value :  2.10057e-05
 Reference value :  2.10072e-05
 Reference value :  2.10140e-05
 Reference value :  2.10541e-05
 Reference value :  2.13752e-05
 Reference value :  2.20000e-05
 Reference value :  2.20005e-05
 Reference value :  2.20007e-05
 Reference value :  2.20010e-05
 Reference value :  2.20019e-05
 Reference value :  2.20023e-05
 Reference value :  2.20032e-05
 Reference value :  2.20042e-05
 Reference value :  2.20056e-05
 Reference value :  2.20062e-05
 Reference value :  2.20076e-05
 Reference value :  2.20093e-05
 Reference value :  2.20114e-05
 Reference value :  2.20232e-05
 Reference value :  2.20970e-05
 Reference value :  2.26768e-05
 Reference value :  2.30006e-05
 Reference value :  2.30010e-05
 Reference value :  2.30012e-05
 Reference value :  2.30017e-05
 Reference value :  2.30020e-05
 Reference value :  2.30035e-05
 Reference value :  2.30046e-05
 Reference value :  2.30057e-05
 Reference value :  2.30072e-05
 Reference value :  2.30137e-05
 Reference value :  2.30524e-05
 Reference value :  2.33514e-05
 Reference value :  2.40001e-05
 Reference value :  2.40005e-05
 Reference value :  2.40006e-05
 Reference value :  2.40010e-05
 Reference value :  2.40019e-05
 Reference value :  2.40023e-05
 Reference value :  2.40032e-05
 Reference value :  2.40042e-05
 Reference value :  2.40051e-05
 Reference value :  2.40062e-05
 Reference value :  2.40082e-05
 Reference value :  2.40110e-05
 Reference value :  2.40124e-05
 Reference value :  2.40133e-05
 Reference value :  2.40153e-05
 Reference value :  2.40175e-05
 Reference value :  2.40236e-05
 Reference value :  2.40422e-05
 Reference value :  2.41043e-05
 Reference value :  2.42521e-05
 Reference value :  2.46614e-05
 Reference value :  2.50006e-05
 Reference value :  2.50010e-05
 Reference value :  2.50011e-05
 Reference value :  2.50014e-05
 Reference value :  2.50020e-05
 Reference value :  2.50029e-05
 Reference value :  2.50041e-05
 Reference value :  2.50046e-05
 Reference value :  2.50057e-05
 Reference value :  2.50072e-05
 Reference value :  2.50140e-05
 Reference value :  2.50541e-05
 Reference value :  2.53754e-05
 Reference value :  2.60001e-05
 Reference value :  2.60004e-05
 Reference value :  2.60005e-05
 Reference value :  2.60010e-05
 Reference value :  2.60019e-05
 Reference value :  2.60023e-05
 Reference value :  2.60032e-05
 Reference value :  2.60042e-05
 Reference value :  2.60056e-05
 Reference value :  2.60062e-05
 Reference value :  2.60076e-05
 Reference value :  2.60093e-05
 Reference value :  2.60103e-05
 Reference value :  2.60169e-05
 Reference value :  2.60554e-05
 Reference value :  2.61791e-05
 Reference value :  2.70005e-05
 Reference value :  2.70007e-05
 Reference value :  2.70010e-05
 Reference value :  2.70012e-05
 Reference value :  2.70014e-05
 Reference value :  2.70017e-05
 Reference value :  2.70020e-05
 Reference value :  2.70029e-05
 Reference value :  2.70041e-05
 Reference value :  2.70046e-05
 Reference value :  2.70057e-05
 Reference value :  2.70072e-05
 Reference value :  2.70137e-05
 Reference value :  2.70303e-05
 Reference value :  2.71805e-05
 Reference value :  2.80000e-05
 Reference value :  2.80001e-05
 Reference value :  2.80005e-05
 Reference value :  2.80007e-05
 Reference value :  2.80015e-05
 Reference value :  2.80023e-05
 Reference value :  2.80032e-05
 Reference value :  2.80042e-05
 Reference value :  2.80051e-05
 Reference value :  2.80062e-05
 Reference value :  2.80082e-05
 Reference value :  2.80098e-05
 Reference value :  2.80110e-05
 Reference value :  2.80124e-05
 Reference value :  2.80133e-05
 Reference value :  2.80155e-05
 Reference value :  2.80177e-05
 Reference value :  2.80209e-05
 Reference value :  2.80280e-05
 Reference value :  2.80465e-05
 Reference value :  2.80979e-05
 Reference value :  2.82535e-05
 Reference value :  2.90005e-05
 Reference value :  2.90007e-05
 Reference value :  2.90010e-05
 Reference value :  2.90011e-05
 Reference value :  2.90014e-05
 Reference value :  2.90020e-05
 Reference value :  2.90029e-05
 Reference value :  2.90041e-05
 Reference value :  2.90046e-05
 Reference value :  2.90057e-05
 Reference value :  2.90072e-05
 Reference value :  2.90140e-05
 Reference value :  2.90542e-05
 Reference value :  2.91919e-05
 Reference value :  2.97429e-05
 Reference value :  3.00002e-05
 Reference value :  3.00005e-05
 Reference value :  3.00007e-05
 Reference value :  3.00015e-05
 Reference value :  3.00023e-05
 Reference value :  3.00032e-05
 Reference value :  3.00048e-05
 Reference value :  3.00062e-05
 Reference value :  3.00076e-05
 Reference value :  3.00093e-05
 Reference value :  3.00114e-05
 Reference value :  3.00232e-05
 Reference value :  3.00963e-05
 Reference value :  3.10005e-05
 Reference value :  3.10008e-05
 Reference value :  3.10010e-05
 Reference value :  3.10012e-05
 Reference value :  3.10017e-05
 Reference value :  3.10024e-05
 Reference value :  3.10041e-05
 Reference value :  3.10051e-05
 Reference value :  3.10072e-05
 Reference value :  3.10193e-05
 Reference value :  3.11805e-05
 Reference value :  3.20000e-05
 Reference value :  3.20005e-05
 Reference value :  3.20007e-05
 Reference value :  3.20019e-05
 Reference value :  3.20027e-05
 Reference value :  3.20037e-05
 Reference value :  3.20051e-05
 Reference value :  3.20069e-05
 Reference value :  3.20092e-05
 Reference value :  3.20155e-05
 Reference value :  3.20860e-05
 Reference value :  3.30006e-05
 Reference value :  3.30010e-05
 Reference value :  3.30012e-05
 Reference value :  3.30017e-05
 Reference value :  3.30025e-05
 Reference value :  3.30035e-05
 Reference value :  3.30059e-05
 Reference value :  3.30080e-05
 Reference value :  3.30230e-05
 Reference value :  3.34765e-05
No. of Data Rows : 1206
ngspice-44 done
