
Note: Compatibility modes selected: hs a


Circuit: ** sch_path: /home/ece/cace/sar-adc-using-sky130-pdk/runs/run_2025-09-13_01-43-53/parameters/dnl/run_3/sar_output_dnl.sch

option SCALE: Scale is set to 1e-06 for instance and model parameters
option SCALE: Scale is set to 1e-06 for instance and model parameters
option SCALE: Scale is set to 1e-06 for instance and model parameters
option SCALE: Scale is set to 1e-06 for instance and model parameters
Doing analysis at TEMP = 27.000000 and TNOM = 27.000000

Using KLU as Direct Linear Solver
Operating point simulation skipped by 'uic',
  now using transient initial conditions.
 Reference value :  1.00000e-12
 Reference value :  1.18426e-12
 Reference value :  3.96114e-12
 Reference value :  3.00384e-11
 Reference value :  1.00000e-10
 Reference value :  1.36889e-10
 Reference value :  4.11604e-10
 Reference value :  1.30780e-09
 Reference value :  3.08803e-09
 Reference value :  4.84138e-09
 Reference value :  6.41985e-09
 Reference value :  7.63120e-09
 Reference value :  9.04236e-09
 Reference value :  1.02193e-08
 Reference value :  1.30937e-08
 Reference value :  2.41763e-08
 Reference value :  3.25134e-08
 Reference value :  5.23293e-08
 Reference value :  1.12801e-07
 Reference value :  2.50110e-07
 Reference value :  2.50208e-07
 Reference value :  2.50317e-07
 Reference value :  2.50763e-07
 Reference value :  2.51971e-07
 Reference value :  2.53825e-07
 Reference value :  2.55086e-07
 Reference value :  2.56453e-07
 Reference value :  2.61340e-07
 Reference value :  2.79426e-07
 Reference value :  4.16964e-07
 Reference value :  5.00070e-07
 Reference value :  5.00124e-07
 Reference value :  5.00348e-07
 Reference value :  5.00857e-07
 Reference value :  5.01627e-07
 Reference value :  5.03085e-07
 Reference value :  5.04989e-07
 Reference value :  5.08675e-07
 Reference value :  5.09872e-07
 Reference value :  5.12529e-07
 Reference value :  5.17890e-07
 Reference value :  5.47110e-07
 Reference value :  7.50100e-07
 Reference value :  7.50170e-07
 Reference value :  7.50256e-07
 Reference value :  7.50703e-07
 Reference value :  7.51576e-07
 Reference value :  7.52526e-07
 Reference value :  7.53780e-07
 Reference value :  7.54923e-07
 Reference value :  7.56350e-07
 Reference value :  7.61210e-07
 Reference value :  8.02472e-07
 Reference value :  1.00001e-06
 Reference value :  1.00010e-06
 Reference value :  1.00016e-06
 Reference value :  1.00054e-06
 Reference value :  1.00119e-06
 Reference value :  1.00209e-06
 Reference value :  1.00306e-06
 Reference value :  1.00418e-06
 Reference value :  1.00524e-06
 Reference value :  1.00731e-06
 Reference value :  1.01030e-06
 Reference value :  1.01342e-06
 Reference value :  1.01454e-06
 Reference value :  1.01646e-06
 Reference value :  1.01865e-06
 Reference value :  1.02432e-06
 Reference value :  1.08926e-06
 Reference value :  1.25011e-06
 Reference value :  1.25020e-06
 Reference value :  1.25032e-06
 Reference value :  1.25110e-06
 Reference value :  1.25203e-06
 Reference value :  1.25325e-06
 Reference value :  1.25439e-06
 Reference value :  1.25570e-06
 Reference value :  1.25971e-06
 Reference value :  1.28617e-06
 Reference value :  1.50000e-06
 Reference value :  1.50007e-06
 Reference value :  1.50012e-06
 Reference value :  1.50054e-06
 Reference value :  1.50119e-06
 Reference value :  1.50258e-06
 Reference value :  1.50363e-06
 Reference value :  1.50568e-06
 Reference value :  1.50629e-06
 Reference value :  1.50794e-06
 Reference value :  1.51093e-06
 Reference value :  1.54194e-06
 Reference value :  1.75013e-06
 Reference value :  1.75022e-06
 Reference value :  1.75070e-06
 Reference value :  1.75203e-06
 Reference value :  1.75378e-06
 Reference value :  1.75549e-06
 Reference value :  1.75902e-06
 Reference value :  1.78122e-06
 Reference value :  2.00001e-06
 Reference value :  2.00010e-06
 Reference value :  2.00022e-06
 Reference value :  2.00086e-06
 Reference value :  2.00210e-06
 Reference value :  2.00307e-06
 Reference value :  2.00473e-06
 Reference value :  2.00580e-06
 Reference value :  2.00865e-06
 Reference value :  2.01186e-06
 Reference value :  2.01454e-06
 Reference value :  2.01648e-06
 Reference value :  2.01988e-06
 Reference value :  2.05606e-06
 Reference value :  2.25010e-06
 Reference value :  2.25020e-06
 Reference value :  2.25032e-06
 Reference value :  2.25110e-06
 Reference value :  2.25203e-06
 Reference value :  2.25378e-06
 Reference value :  2.25568e-06
 Reference value :  2.26257e-06
 Reference value :  2.31265e-06
 Reference value :  2.50000e-06
 Reference value :  2.50007e-06
 Reference value :  2.50012e-06
 Reference value :  2.50035e-06
 Reference value :  2.50086e-06
 Reference value :  2.50163e-06
 Reference value :  2.50306e-06
 Reference value :  2.50489e-06
 Reference value :  2.50630e-06
 Reference value :  2.50794e-06
 Reference value :  2.51093e-06
 Reference value :  2.52660e-06
 Reference value :  2.75010e-06
 Reference value :  2.75017e-06
 Reference value :  2.75022e-06
 Reference value :  2.75045e-06
 Reference value :  2.75157e-06
 Reference value :  2.75251e-06
 Reference value :  2.75377e-06
 Reference value :  2.75491e-06
 Reference value :  2.75725e-06
 Reference value :  2.76451e-06
 Reference value :  2.80330e-06
 Reference value :  3.00000e-06
 Reference value :  3.00007e-06
 Reference value :  3.00012e-06
 Reference value :  3.00054e-06
 Reference value :  3.00119e-06
 Reference value :  3.00258e-06
 Reference value :  3.00364e-06
 Reference value :  3.00473e-06
 Reference value :  3.00580e-06
 Reference value :  3.01029e-06
 Reference value :  3.01454e-06
 Reference value :  3.01755e-06
 Reference value :  3.02191e-06
 Reference value :  3.04958e-06
 Reference value :  3.06723e-06
 Reference value :  3.08436e-06
 Reference value :  3.10914e-06
 Reference value :  3.14956e-06
 Reference value :  3.16524e-06
 Reference value :  3.17891e-06
 Reference value :  3.18613e-06
 Reference value :  3.20909e-06
 Reference value :  3.25011e-06
 Reference value :  3.25021e-06
 Reference value :  3.25045e-06
 Reference value :  3.25157e-06
 Reference value :  3.25324e-06
 Reference value :  3.25438e-06
 Reference value :  3.25567e-06
 Reference value :  3.25968e-06
 Reference value :  3.28580e-06
 Reference value :  3.50000e-06
 Reference value :  3.50010e-06
 Reference value :  3.50022e-06
 Reference value :  3.50086e-06
 Reference value :  3.50163e-06
 Reference value :  3.50306e-06
 Reference value :  3.50489e-06
 Reference value :  3.50630e-06
 Reference value :  3.50794e-06
 Reference value :  3.50983e-06
 Reference value :  3.51441e-06
 Reference value :  3.54172e-06
 Reference value :  3.75011e-06
 Reference value :  3.75021e-06
 Reference value :  3.75045e-06
 Reference value :  3.75157e-06
 Reference value :  3.75324e-06
 Reference value :  3.75490e-06
 Reference value :  3.75900e-06
 Reference value :  3.84728e-06
 Reference value :  4.00007e-06
 Reference value :  4.00016e-06
 Reference value :  4.00086e-06
 Reference value :  4.00258e-06
 Reference value :  4.00418e-06
 Reference value :  4.00524e-06
 Reference value :  4.00865e-06
 Reference value :  4.01186e-06
 Reference value :  4.01455e-06
 Reference value :  4.01756e-06
 Reference value :  4.02194e-06
 Reference value :  4.03148e-06
 Reference value :  4.03973e-06
 Reference value :  4.04637e-06
 Reference value :  4.05631e-06
 Reference value :  4.06933e-06
 Reference value :  4.09811e-06
 Reference value :  4.16741e-06
 Reference value :  4.25011e-06
 Reference value :  4.25017e-06
 Reference value :  4.25022e-06
 Reference value :  4.25045e-06
 Reference value :  4.25156e-06
 Reference value :  4.25251e-06
 Reference value :  4.25375e-06
 Reference value :  4.25502e-06
 Reference value :  4.25647e-06
 Reference value :  4.26585e-06
 Reference value :  4.31251e-06
 Reference value :  4.50000e-06
 Reference value :  4.50007e-06
 Reference value :  4.50012e-06
 Reference value :  4.50035e-06
 Reference value :  4.50086e-06
 Reference value :  4.50159e-06
 Reference value :  4.50251e-06
 Reference value :  4.50300e-06
 Reference value :  4.50411e-06
 Reference value :  4.50562e-06
 Reference value :  4.50695e-06
 Reference value :  4.50887e-06
 Reference value :  4.51225e-06
 Reference value :  4.54039e-06
 Reference value :  4.75010e-06
 Reference value :  4.75017e-06
 Reference value :  4.75022e-06
 Reference value :  4.75045e-06
 Reference value :  4.75156e-06
 Reference value :  4.75203e-06
 Reference value :  4.75324e-06
 Reference value :  4.75436e-06
 Reference value :  4.75548e-06
 Reference value :  4.75704e-06
 Reference value :  4.76042e-06
 Reference value :  4.77428e-06
 Reference value :  4.90773e-06
 Reference value :  5.00003e-06
 Reference value :  5.00011e-06
 Reference value :  5.00022e-06
 Reference value :  5.00086e-06
 Reference value :  5.00163e-06
 Reference value :  5.00308e-06
 Reference value :  5.00419e-06
 Reference value :  5.00519e-06
 Reference value :  5.00640e-06
 Reference value :  5.00807e-06
 Reference value :  5.01010e-06
 Reference value :  5.01197e-06
 Reference value :  5.01370e-06
 Reference value :  5.01524e-06
 Reference value :  5.01705e-06
 Reference value :  5.01901e-06
 Reference value :  5.02552e-06
 Reference value :  5.03471e-06
 Reference value :  5.03880e-06
 Reference value :  5.04469e-06
 Reference value :  5.05661e-06
 Reference value :  5.09664e-06
 Reference value :  5.25011e-06
 Reference value :  5.25020e-06
 Reference value :  5.25032e-06
 Reference value :  5.25109e-06
 Reference value :  5.25202e-06
 Reference value :  5.25324e-06
 Reference value :  5.25377e-06
 Reference value :  5.25501e-06
 Reference value :  5.25803e-06
 Reference value :  5.27240e-06
 Reference value :  5.46995e-06
 Reference value :  5.50007e-06
 Reference value :  5.50012e-06
 Reference value :  5.50035e-06
 Reference value :  5.50086e-06
 Reference value :  5.50163e-06
 Reference value :  5.50307e-06
 Reference value :  5.50488e-06
 Reference value :  5.50630e-06
 Reference value :  5.50794e-06
 Reference value :  5.50982e-06
 Reference value :  5.51209e-06
 Reference value :  5.54163e-06
 Reference value :  5.75011e-06
 Reference value :  5.75020e-06
 Reference value :  5.75026e-06
 Reference value :  5.75070e-06
 Reference value :  5.75203e-06
 Reference value :  5.75324e-06
 Reference value :  5.75436e-06
 Reference value :  5.75548e-06
 Reference value :  5.75724e-06
 Reference value :  5.76998e-06
 Reference value :  5.93536e-06
 Reference value :  6.00003e-06
 Reference value :  6.00011e-06
 Reference value :  6.00022e-06
 Reference value :  6.00086e-06
 Reference value :  6.00163e-06
 Reference value :  6.00307e-06
 Reference value :  6.00473e-06
 Reference value :  6.00580e-06
 Reference value :  6.00866e-06
 Reference value :  6.01187e-06
 Reference value :  6.01455e-06
 Reference value :  6.01648e-06
 Reference value :  6.01869e-06
 Reference value :  6.02445e-06
 Reference value :  6.03118e-06
 Reference value :  6.03427e-06
 Reference value :  6.03798e-06
 Reference value :  6.04395e-06
 Reference value :  6.05935e-06
 Reference value :  6.07176e-06
 Reference value :  6.10991e-06
 Reference value :  6.25010e-06
 Reference value :  6.25013e-06
 Reference value :  6.25021e-06
 Reference value :  6.25032e-06
 Reference value :  6.25070e-06
 Reference value :  6.25156e-06
 Reference value :  6.25202e-06
 Reference value :  6.25323e-06
 Reference value :  6.25375e-06
 Reference value :  6.25501e-06
 Reference value :  6.25645e-06
 Reference value :  6.26248e-06
 Reference value :  6.28559e-06
 Reference value :  6.47053e-06
 Reference value :  6.50003e-06
 Reference value :  6.50011e-06
 Reference value :  6.50022e-06
 Reference value :  6.50086e-06
 Reference value :  6.50159e-06
 Reference value :  6.50251e-06
 Reference value :  6.50300e-06
 Reference value :  6.50411e-06
 Reference value :  6.50562e-06
 Reference value :  6.50625e-06
 Reference value :  6.50795e-06
 Reference value :  6.50986e-06
 Reference value :  6.51224e-06
 Reference value :  6.52616e-06
 Reference value :  6.62572e-06
 Reference value :  6.75011e-06
 Reference value :  6.75020e-06
 Reference value :  6.75026e-06
 Reference value :  6.75070e-06
 Reference value :  6.75203e-06
 Reference value :  6.75324e-06
 Reference value :  6.75376e-06
 Reference value :  6.75490e-06
 Reference value :  6.75622e-06
 Reference value :  6.75785e-06
 Reference value :  6.76205e-06
 Reference value :  6.77424e-06
 Reference value :  6.83595e-06
 Reference value :  7.00001e-06
 Reference value :  7.00010e-06
 Reference value :  7.00022e-06
 Reference value :  7.00086e-06
 Reference value :  7.00209e-06
 Reference value :  7.00308e-06
 Reference value :  7.00471e-06
 Reference value :  7.00574e-06
 Reference value :  7.00807e-06
 Reference value :  7.01010e-06
 Reference value :  7.01197e-06
 Reference value :  7.01370e-06
 Reference value :  7.01527e-06
 Reference value :  7.01710e-06
 Reference value :  7.01909e-06
 Reference value :  7.02430e-06
 Reference value :  7.02952e-06
 Reference value :  7.03359e-06
 Reference value :  7.04185e-06
 Reference value :  7.05746e-06
 Reference value :  7.09132e-06
 Reference value :  7.23138e-06
 Reference value :  7.25011e-06
 Reference value :  7.25017e-06
 Reference value :  7.25021e-06
 Reference value :  7.25032e-06
 Reference value :  7.25070e-06
 Reference value :  7.25156e-06
 Reference value :  7.25202e-06
 Reference value :  7.25323e-06
 Reference value :  7.25377e-06
 Reference value :  7.25501e-06
 Reference value :  7.25645e-06
 Reference value :  7.25964e-06
 Reference value :  7.27235e-06
 Reference value :  7.46914e-06
 Reference value :  7.50003e-06
 Reference value :  7.50012e-06
 Reference value :  7.50054e-06
 Reference value :  7.50163e-06
 Reference value :  7.50307e-06
 Reference value :  7.50488e-06
 Reference value :  7.50630e-06
 Reference value :  7.50793e-06
 Reference value :  7.51094e-06
 Reference value :  7.54156e-06
 Reference value :  7.75017e-06
 Reference value :  7.75026e-06
 Reference value :  7.75109e-06
 Reference value :  7.75251e-06
 Reference value :  7.75376e-06
 Reference value :  7.75548e-06
 Reference value :  7.75897e-06
 Reference value :  7.80269e-06
 Reference value :  8.00003e-06
 Reference value :  8.00012e-06
 Reference value :  8.00054e-06
 Reference value :  8.00163e-06
 Reference value :  8.00307e-06
 Reference value :  8.00474e-06
 Reference value :  8.00582e-06
 Reference value :  8.00818e-06
 Reference value :  8.01117e-06
 Reference value :  8.04105e-06
 Reference value :  8.25013e-06
 Reference value :  8.25022e-06
 Reference value :  8.25070e-06
 Reference value :  8.25202e-06
 Reference value :  8.25392e-06
 Reference value :  8.25675e-06
 Reference value :  8.26308e-06
 Reference value :  8.31910e-06
 Reference value :  8.50000e-06
 Reference value :  8.50000e-06
 Reference value :  8.50000e-06
 Reference value :  8.50004e-06
 Reference value :  8.50011e-06
 Reference value :  8.50027e-06
 Reference value :  8.50118e-06
 Reference value :  8.50204e-06
 Reference value :  8.50306e-06
 Reference value :  8.50415e-06
 Reference value :  8.50518e-06
 Reference value :  8.50651e-06
 Reference value :  8.51686e-06
 Reference value :  8.52285e-06
 Reference value :  8.52901e-06
 Reference value :  8.53330e-06
 Reference value :  8.54046e-06
 Reference value :  8.54631e-06
 Reference value :  8.55947e-06
 Reference value :  8.60155e-06
 Reference value :  8.75010e-06
 Reference value :  8.75017e-06
 Reference value :  8.75022e-06
 Reference value :  8.75032e-06
 Reference value :  8.75109e-06
 Reference value :  8.75202e-06
 Reference value :  8.75322e-06
 Reference value :  8.75436e-06
 Reference value :  8.75560e-06
 Reference value :  8.76231e-06
 Reference value :  8.80954e-06
 Reference value :  9.00001e-06
 Reference value :  9.00010e-06
 Reference value :  9.00016e-06
 Reference value :  9.00054e-06
 Reference value :  9.00119e-06
 Reference value :  9.00210e-06
 Reference value :  9.00306e-06
 Reference value :  9.00417e-06
 Reference value :  9.00695e-06
 Reference value :  9.00992e-06
 Reference value :  9.01264e-06
 Reference value :  9.01787e-06
 Reference value :  9.04871e-06
 Reference value :  9.25011e-06
 Reference value :  9.25021e-06
 Reference value :  9.25045e-06
 Reference value :  9.25156e-06
 Reference value :  9.25251e-06
 Reference value :  9.25375e-06
 Reference value :  9.25488e-06
 Reference value :  9.25633e-06
 Reference value :  9.26123e-06
 Reference value :  9.30269e-06
 Reference value :  9.50000e-06
 Reference value :  9.50007e-06
 Reference value :  9.50012e-06
 Reference value :  9.50035e-06
 Reference value :  9.50086e-06
 Reference value :  9.50163e-06
 Reference value :  9.50307e-06
 Reference value :  9.50473e-06
 Reference value :  9.50580e-06
 Reference value :  9.50868e-06
 Reference value :  9.51191e-06
 Reference value :  9.51452e-06
 Reference value :  9.51650e-06
 Reference value :  9.51871e-06
 Reference value :  9.52938e-06
 Reference value :  9.57636e-06
 Reference value :  9.75010e-06
 Reference value :  9.75017e-06
 Reference value :  9.75026e-06
 Reference value :  9.75070e-06
 Reference value :  9.75156e-06
 Reference value :  9.75251e-06
 Reference value :  9.75377e-06
 Reference value :  9.75501e-06
 Reference value :  9.75804e-06
 Reference value :  9.77241e-06
 Reference value :  9.96987e-06
 Reference value :  1.00001e-05
 Reference value :  1.00002e-05
 Reference value :  1.00005e-05
 Reference value :  1.00012e-05
 Reference value :  1.00021e-05
 Reference value :  1.00031e-05
 Reference value :  1.00042e-05
 Reference value :  1.00063e-05
 Reference value :  1.00079e-05
 Reference value :  1.00098e-05
 Reference value :  1.00144e-05
 Reference value :  1.00692e-05
 Reference value :  1.02501e-05
 Reference value :  1.02502e-05
 Reference value :  1.02503e-05
 Reference value :  1.02507e-05
 Reference value :  1.02520e-05
 Reference value :  1.02532e-05
 Reference value :  1.02544e-05
 Reference value :  1.02555e-05
 Reference value :  1.02572e-05
 Reference value :  1.02700e-05
 Reference value :  1.04354e-05
 Reference value :  1.05000e-05
 Reference value :  1.05001e-05
 Reference value :  1.05005e-05
 Reference value :  1.05012e-05
 Reference value :  1.05021e-05
 Reference value :  1.05031e-05
 Reference value :  1.05047e-05
 Reference value :  1.05058e-05
 Reference value :  1.05087e-05
 Reference value :  1.05103e-05
 Reference value :  1.05134e-05
 Reference value :  1.05145e-05
 Reference value :  1.05165e-05
 Reference value :  1.05187e-05
 Reference value :  1.05243e-05
 Reference value :  1.05509e-05
 Reference value :  1.06963e-05
 Reference value :  1.07501e-05
 Reference value :  1.07502e-05
 Reference value :  1.07503e-05
 Reference value :  1.07511e-05
 Reference value :  1.07520e-05
 Reference value :  1.07532e-05
 Reference value :  1.07544e-05
 Reference value :  1.07557e-05
 Reference value :  1.07625e-05
 Reference value :  1.08645e-05
 Reference value :  1.10000e-05
 Reference value :  1.10001e-05
 Reference value :  1.10002e-05
 Reference value :  1.10009e-05
 Reference value :  1.10016e-05
 Reference value :  1.10031e-05
 Reference value :  1.10049e-05
 Reference value :  1.10063e-05
 Reference value :  1.10079e-05
 Reference value :  1.10111e-05
 Reference value :  1.10189e-05
 Reference value :  1.11269e-05
 Reference value :  1.12501e-05
 Reference value :  1.12503e-05
 Reference value :  1.12511e-05
 Reference value :  1.12525e-05
 Reference value :  1.12538e-05
 Reference value :  1.12549e-05
 Reference value :  1.12563e-05
 Reference value :  1.12700e-05
 Reference value :  1.15000e-05
 Reference value :  1.15001e-05
 Reference value :  1.15002e-05
 Reference value :  1.15003e-05
 Reference value :  1.15009e-05
 Reference value :  1.15016e-05
 Reference value :  1.15026e-05
 Reference value :  1.15031e-05
 Reference value :  1.15042e-05
 Reference value :  1.15052e-05
 Reference value :  1.15065e-05
 Reference value :  1.15087e-05
 Reference value :  1.15103e-05
 Reference value :  1.15134e-05
 Reference value :  1.15156e-05
 Reference value :  1.15176e-05
 Reference value :  1.15219e-05
 Reference value :  1.15461e-05
 Reference value :  1.15634e-05
 Reference value :  1.15757e-05
 Reference value :  1.15826e-05
 Reference value :  1.16147e-05
 Reference value :  1.16613e-05
 Reference value :  1.16756e-05
 Reference value :  1.16824e-05
 Reference value :  1.17175e-05
 Reference value :  1.17501e-05
 Reference value :  1.17502e-05
 Reference value :  1.17504e-05
 Reference value :  1.17516e-05
 Reference value :  1.17525e-05
 Reference value :  1.17538e-05
 Reference value :  1.17550e-05
 Reference value :  1.17564e-05
 Reference value :  1.17625e-05
 Reference value :  1.18117e-05
 Reference value :  1.20000e-05
 Reference value :  1.20001e-05
 Reference value :  1.20001e-05
 Reference value :  1.20002e-05
 Reference value :  1.20009e-05
 Reference value :  1.20016e-05
 Reference value :  1.20031e-05
 Reference value :  1.20049e-05
 Reference value :  1.20063e-05
 Reference value :  1.20079e-05
 Reference value :  1.20111e-05
 Reference value :  1.20262e-05
 Reference value :  1.22422e-05
 Reference value :  1.22501e-05
 Reference value :  1.22502e-05
 Reference value :  1.22503e-05
 Reference value :  1.22511e-05
 Reference value :  1.22520e-05
 Reference value :  1.22532e-05
 Reference value :  1.22544e-05
 Reference value :  1.22563e-05
 Reference value :  1.22613e-05
 Reference value :  1.23475e-05
 Reference value :  1.25000e-05
 Reference value :  1.25001e-05
 Reference value :  1.25003e-05
 Reference value :  1.25009e-05
 Reference value :  1.25016e-05
 Reference value :  1.25021e-05
 Reference value :  1.25031e-05
 Reference value :  1.25042e-05
 Reference value :  1.25052e-05
 Reference value :  1.25073e-05
 Reference value :  1.25103e-05
 Reference value :  1.25134e-05
 Reference value :  1.25156e-05
 Reference value :  1.25176e-05
 Reference value :  1.25219e-05
 Reference value :  1.25314e-05
 Reference value :  1.25428e-05
 Reference value :  1.25559e-05
 Reference value :  1.25757e-05
 Reference value :  1.26360e-05
 Reference value :  1.27501e-05
 Reference value :  1.27502e-05
 Reference value :  1.27503e-05
 Reference value :  1.27511e-05
 Reference value :  1.27520e-05
 Reference value :  1.27537e-05
 Reference value :  1.27550e-05
 Reference value :  1.27565e-05
 Reference value :  1.27626e-05
 Reference value :  1.27859e-05
 Reference value :  1.29728e-05
 Reference value :  1.30000e-05
 Reference value :  1.30001e-05
 Reference value :  1.30002e-05
 Reference value :  1.30009e-05
 Reference value :  1.30020e-05
 Reference value :  1.30030e-05
 Reference value :  1.30049e-05
 Reference value :  1.30062e-05
 Reference value :  1.30089e-05
 Reference value :  1.30122e-05
 Reference value :  1.30688e-05
 Reference value :  1.32501e-05
 Reference value :  1.32502e-05
 Reference value :  1.32503e-05
 Reference value :  1.32516e-05
 Reference value :  1.32532e-05
 Reference value :  1.32544e-05
 Reference value :  1.32555e-05
 Reference value :  1.32570e-05
 Reference value :  1.32604e-05
 Reference value :  1.32742e-05
 Reference value :  1.35000e-05
 Reference value :  1.35001e-05
 Reference value :  1.35002e-05
 Reference value :  1.35009e-05
 Reference value :  1.35021e-05
 Reference value :  1.35036e-05
 Reference value :  1.35052e-05
 Reference value :  1.35081e-05
 Reference value :  1.35101e-05
 Reference value :  1.35120e-05
 Reference value :  1.35137e-05
 Reference value :  1.35153e-05
 Reference value :  1.35181e-05
 Reference value :  1.35300e-05
 Reference value :  1.35341e-05
 Reference value :  1.35401e-05
 Reference value :  1.35537e-05
 Reference value :  1.37008e-05
 Reference value :  1.37502e-05
 Reference value :  1.37504e-05
 Reference value :  1.37520e-05
 Reference value :  1.37538e-05
 Reference value :  1.37564e-05
 Reference value :  1.37854e-05
 Reference value :  1.40000e-05
 Reference value :  1.40002e-05
 Reference value :  1.40012e-05
 Reference value :  1.40031e-05
 Reference value :  1.40057e-05
 Reference value :  1.40070e-05
 Reference value :  1.40098e-05
 Reference value :  1.40416e-05
 Reference value :  1.42501e-05
 Reference value :  1.42503e-05
 Reference value :  1.42511e-05
 Reference value :  1.42525e-05
 Reference value :  1.42544e-05
 Reference value :  1.42563e-05
 Reference value :  1.42645e-05
 Reference value :  1.45000e-05
 Reference value :  1.45001e-05
 Reference value :  1.45003e-05
 Reference value :  1.45016e-05
 Reference value :  1.45031e-05
 Reference value :  1.45047e-05
 Reference value :  1.45058e-05
 Reference value :  1.45087e-05
 Reference value :  1.45119e-05
 Reference value :  1.45145e-05
 Reference value :  1.45165e-05
 Reference value :  1.45187e-05
 Reference value :  1.45281e-05
 Reference value :  1.45343e-05
 Reference value :  1.45408e-05
 Reference value :  1.45527e-05
 Reference value :  1.45709e-05
 Reference value :  1.46382e-05
 Reference value :  1.47501e-05
 Reference value :  1.47502e-05
 Reference value :  1.47507e-05
 Reference value :  1.47520e-05
 Reference value :  1.47537e-05
 Reference value :  1.47557e-05
 Reference value :  1.47658e-05
 Reference value :  1.50000e-05
 Reference value :  1.50001e-05
 Reference value :  1.50003e-05
 Reference value :  1.50012e-05
 Reference value :  1.50025e-05
 Reference value :  1.50041e-05
 Reference value :  1.50062e-05
 Reference value :  1.50089e-05
 Reference value :  1.50191e-05
 Reference value :  1.52501e-05
 Reference value :  1.52502e-05
 Reference value :  1.52503e-05
 Reference value :  1.52511e-05
 Reference value :  1.52520e-05
 Reference value :  1.52532e-05
 Reference value :  1.52544e-05
 Reference value :  1.52555e-05
 Reference value :  1.52562e-05
 Reference value :  1.52579e-05
 Reference value :  1.52604e-05
 Reference value :  1.52679e-05
 Reference value :  1.53016e-05
 Reference value :  1.55000e-05
 Reference value :  1.55015e-05
 Reference value :  1.55046e-05
 Reference value :  1.55062e-05
 Reference value :  1.55090e-05
 Reference value :  1.55101e-05
 Reference value :  1.55123e-05
 Reference value :  1.55143e-05
 Reference value :  1.55161e-05
 Reference value :  1.55180e-05
 Reference value :  1.55201e-05
 Reference value :  1.55233e-05
 Reference value :  1.55270e-05
 Reference value :  1.55339e-05
 Reference value :  1.55493e-05
 Reference value :  1.56540e-05
 Reference value :  1.57501e-05
 Reference value :  1.57502e-05
 Reference value :  1.57503e-05
 Reference value :  1.57511e-05
 Reference value :  1.57520e-05
 Reference value :  1.57537e-05
 Reference value :  1.57549e-05
 Reference value :  1.57577e-05
 Reference value :  1.57713e-05
 Reference value :  1.58593e-05
 Reference value :  1.60000e-05
 Reference value :  1.60001e-05
 Reference value :  1.60001e-05
 Reference value :  1.60002e-05
 Reference value :  1.60005e-05
 Reference value :  1.60012e-05
 Reference value :  1.60021e-05
 Reference value :  1.60031e-05
 Reference value :  1.60042e-05
 Reference value :  1.60057e-05
 Reference value :  1.60063e-05
 Reference value :  1.60079e-05
 Reference value :  1.60098e-05
 Reference value :  1.60121e-05
 Reference value :  1.60415e-05
 Reference value :  1.62501e-05
 Reference value :  1.62502e-05
 Reference value :  1.62503e-05
 Reference value :  1.62507e-05
 Reference value :  1.62516e-05
 Reference value :  1.62520e-05
 Reference value :  1.62532e-05
 Reference value :  1.62544e-05
 Reference value :  1.62555e-05
 Reference value :  1.62572e-05
 Reference value :  1.62612e-05
 Reference value :  1.62808e-05
 Reference value :  1.64336e-05
 Reference value :  1.65000e-05
 Reference value :  1.65001e-05
 Reference value :  1.65002e-05
 Reference value :  1.65009e-05
 Reference value :  1.65021e-05
 Reference value :  1.65031e-05
 Reference value :  1.65047e-05
 Reference value :  1.65058e-05
 Reference value :  1.65082e-05
 Reference value :  1.65112e-05
 Reference value :  1.65719e-05
 Reference value :  1.67501e-05
 Reference value :  1.67502e-05
 Reference value :  1.67504e-05
 Reference value :  1.67516e-05
 Reference value :  1.67532e-05
 Reference value :  1.67568e-05
 Reference value :  1.67631e-05
 Reference value :  1.68789e-05
 Reference value :  1.70000e-05
 Reference value :  1.70000e-05
 Reference value :  1.70000e-05
 Reference value :  1.70001e-05
 Reference value :  1.70001e-05
 Reference value :  1.70003e-05
 Reference value :  1.70012e-05
 Reference value :  1.70020e-05
 Reference value :  1.70031e-05
 Reference value :  1.70042e-05
 Reference value :  1.70046e-05
 Reference value :  1.70065e-05
 Reference value :  1.70123e-05
 Reference value :  1.70228e-05
 Reference value :  1.70290e-05
 Reference value :  1.70333e-05
 Reference value :  1.70405e-05
 Reference value :  1.70432e-05
 Reference value :  1.70502e-05
 Reference value :  1.70588e-05
 Reference value :  1.70840e-05
 Reference value :  1.71499e-05
 Reference value :  1.72501e-05
 Reference value :  1.72502e-05
 Reference value :  1.72502e-05
 Reference value :  1.72503e-05
 Reference value :  1.72511e-05
 Reference value :  1.72520e-05
 Reference value :  1.72532e-05
 Reference value :  1.72538e-05
 Reference value :  1.72550e-05
 Reference value :  1.72564e-05
 Reference value :  1.72717e-05
 Reference value :  1.75000e-05
 Reference value :  1.75001e-05
 Reference value :  1.75002e-05
 Reference value :  1.75009e-05
 Reference value :  1.75021e-05
 Reference value :  1.75031e-05
 Reference value :  1.75056e-05
 Reference value :  1.75099e-05
 Reference value :  1.75126e-05
 Reference value :  1.75214e-05
 Reference value :  1.75741e-05
 Reference value :  1.77501e-05
 Reference value :  1.77502e-05
 Reference value :  1.77507e-05
 Reference value :  1.77520e-05
 Reference value :  1.77538e-05
 Reference value :  1.77555e-05
 Reference value :  1.77590e-05
 Reference value :  1.78464e-05
 Reference value :  1.80011e-05
 Reference value :  1.80044e-05
 Reference value :  1.80064e-05
 Reference value :  1.80085e-05
 Reference value :  1.80116e-05
 Reference value :  1.80129e-05
 Reference value :  1.80157e-05
 Reference value :  1.80184e-05
 Reference value :  1.80212e-05
 Reference value :  1.80260e-05
 Reference value :  1.80369e-05
 Reference value :  1.80640e-05
 Reference value :  1.82229e-05
 Reference value :  1.82501e-05
 Reference value :  1.82502e-05
 Reference value :  1.82502e-05
 Reference value :  1.82503e-05
 Reference value :  1.82504e-05
 Reference value :  1.82511e-05
 Reference value :  1.82520e-05
 Reference value :  1.82531e-05
 Reference value :  1.82536e-05
 Reference value :  1.82549e-05
 Reference value :  1.82564e-05
 Reference value :  1.82591e-05
 Reference value :  1.82711e-05
 Reference value :  1.85000e-05
 Reference value :  1.85001e-05
 Reference value :  1.85001e-05
 Reference value :  1.85003e-05
 Reference value :  1.85009e-05
 Reference value :  1.85016e-05
 Reference value :  1.85026e-05
 Reference value :  1.85036e-05
 Reference value :  1.85049e-05
 Reference value :  1.85063e-05
 Reference value :  1.85080e-05
 Reference value :  1.85109e-05
 Reference value :  1.85266e-05
 Reference value :  1.87501e-05
 Reference value :  1.87502e-05
 Reference value :  1.87502e-05
 Reference value :  1.87504e-05
 Reference value :  1.87511e-05
 Reference value :  1.87520e-05
 Reference value :  1.87532e-05
 Reference value :  1.87538e-05
 Reference value :  1.87543e-05
 Reference value :  1.87549e-05
 Reference value :  1.87563e-05
 Reference value :  1.87590e-05
 Reference value :  1.87644e-05
 Reference value :  1.88023e-05
 Reference value :  1.89321e-05
 Reference value :  1.90000e-05
 Reference value :  1.90001e-05
 Reference value :  1.90001e-05
 Reference value :  1.90003e-05
 Reference value :  1.90009e-05
 Reference value :  1.90016e-05
 Reference value :  1.90026e-05
 Reference value :  1.90031e-05
 Reference value :  1.90042e-05
 Reference value :  1.90052e-05
 Reference value :  1.90065e-05
 Reference value :  1.90087e-05
 Reference value :  1.90103e-05
 Reference value :  1.90134e-05
 Reference value :  1.90145e-05
 Reference value :  1.90165e-05
 Reference value :  1.90187e-05
 Reference value :  1.90243e-05
 Reference value :  1.90510e-05
 Reference value :  1.91971e-05
 Reference value :  1.92501e-05
 Reference value :  1.92502e-05
 Reference value :  1.92503e-05
 Reference value :  1.92511e-05
 Reference value :  1.92520e-05
 Reference value :  1.92538e-05
 Reference value :  1.92550e-05
 Reference value :  1.92580e-05
 Reference value :  1.92724e-05
 Reference value :  1.95000e-05
 Reference value :  1.95005e-05
 Reference value :  1.95021e-05
 Reference value :  1.95036e-05
 Reference value :  1.95057e-05
 Reference value :  1.95070e-05
 Reference value :  1.95089e-05
 Reference value :  1.95109e-05
 Reference value :  1.95190e-05
 Reference value :  1.96319e-05
 Reference value :  1.97502e-05
 Reference value :  1.97503e-05
 Reference value :  1.97511e-05
 Reference value :  1.97520e-05
 Reference value :  1.97538e-05
 Reference value :  1.97549e-05
 Reference value :  1.97564e-05
 Reference value :  1.97645e-05
 Reference value :  1.98480e-05
 Reference value :  2.00000e-05
 Reference value :  2.00001e-05
 Reference value :  2.00003e-05
 Reference value :  2.00012e-05
 Reference value :  2.00021e-05
 Reference value :  2.00031e-05
 Reference value :  2.00047e-05
 Reference value :  2.00058e-05
 Reference value :  2.00087e-05
 Reference value :  2.00119e-05
 Reference value :  2.00145e-05
 Reference value :  2.00165e-05
 Reference value :  2.00187e-05
 Reference value :  2.00219e-05
 Reference value :  2.00374e-05
 Reference value :  2.00459e-05
 Reference value :  2.00654e-05
 Reference value :  2.00791e-05
 Reference value :  2.00857e-05
 Reference value :  2.01079e-05
 Reference value :  2.01448e-05
 Reference value :  2.01586e-05
 Reference value :  2.01706e-05
 Reference value :  2.01766e-05
 Reference value :  2.01892e-05
 Reference value :  2.02195e-05
 Reference value :  2.02501e-05
 Reference value :  2.02502e-05
 Reference value :  2.02503e-05
 Reference value :  2.02504e-05
 Reference value :  2.02511e-05
 Reference value :  2.02520e-05
 Reference value :  2.02532e-05
 Reference value :  2.02538e-05
 Reference value :  2.02550e-05
 Reference value :  2.02565e-05
 Reference value :  2.02625e-05
 Reference value :  2.02855e-05
 Reference value :  2.04697e-05
 Reference value :  2.05005e-05
 Reference value :  2.05021e-05
 Reference value :  2.05031e-05
 Reference value :  2.05048e-05
 Reference value :  2.05063e-05
 Reference value :  2.05080e-05
 Reference value :  2.05099e-05
 Reference value :  2.05121e-05
 Reference value :  2.05423e-05
 Reference value :  2.07501e-05
 Reference value :  2.07502e-05
 Reference value :  2.07502e-05
 Reference value :  2.07504e-05
 Reference value :  2.07511e-05
 Reference value :  2.07520e-05
 Reference value :  2.07532e-05
 Reference value :  2.07544e-05
 Reference value :  2.07555e-05
 Reference value :  2.07573e-05
 Reference value :  2.07701e-05
 Reference value :  2.10000e-05
 Reference value :  2.10001e-05
 Reference value :  2.10005e-05
 Reference value :  2.10016e-05
 Reference value :  2.10031e-05
 Reference value :  2.10047e-05
 Reference value :  2.10058e-05
 Reference value :  2.10087e-05
 Reference value :  2.10103e-05
 Reference value :  2.10145e-05
 Reference value :  2.10165e-05
 Reference value :  2.10199e-05
 Reference value :  2.10315e-05
 Reference value :  2.10399e-05
 Reference value :  2.10465e-05
 Reference value :  2.10627e-05
 Reference value :  2.10983e-05
 Reference value :  2.11679e-05
 Reference value :  2.12501e-05
 Reference value :  2.12502e-05
 Reference value :  2.12503e-05
 Reference value :  2.12507e-05
 Reference value :  2.12520e-05
 Reference value :  2.12532e-05
 Reference value :  2.12537e-05
 Reference value :  2.12557e-05
 Reference value :  2.12597e-05
 Reference value :  2.12859e-05
 Reference value :  2.15000e-05
 Reference value :  2.15001e-05
 Reference value :  2.15002e-05
 Reference value :  2.15005e-05
 Reference value :  2.15012e-05
 Reference value :  2.15020e-05
 Reference value :  2.15030e-05
 Reference value :  2.15041e-05
 Reference value :  2.15056e-05
 Reference value :  2.15070e-05
 Reference value :  2.15089e-05
 Reference value :  2.15122e-05
 Reference value :  2.15404e-05
 Reference value :  2.17501e-05
 Reference value :  2.17502e-05
 Reference value :  2.17502e-05
 Reference value :  2.17504e-05
 Reference value :  2.17516e-05
 Reference value :  2.17525e-05
 Reference value :  2.17538e-05
 Reference value :  2.17549e-05
 Reference value :  2.17562e-05
 Reference value :  2.17589e-05
 Reference value :  2.17647e-05
 Reference value :  2.18017e-05
 Reference value :  2.19048e-05
 Reference value :  2.20015e-05
 Reference value :  2.20046e-05
 Reference value :  2.20061e-05
 Reference value :  2.20090e-05
 Reference value :  2.20101e-05
 Reference value :  2.20123e-05
 Reference value :  2.20143e-05
 Reference value :  2.20162e-05
 Reference value :  2.20182e-05
 Reference value :  2.20204e-05
 Reference value :  2.20289e-05
 Reference value :  2.20333e-05
 Reference value :  2.20365e-05
 Reference value :  2.20421e-05
 Reference value :  2.20535e-05
 Reference value :  2.21056e-05
 Reference value :  2.22501e-05
 Reference value :  2.22502e-05
 Reference value :  2.22503e-05
 Reference value :  2.22507e-05
 Reference value :  2.22520e-05
 Reference value :  2.22537e-05
 Reference value :  2.22549e-05
 Reference value :  2.22577e-05
 Reference value :  2.22713e-05
 Reference value :  2.24597e-05
 Reference value :  2.25001e-05
 Reference value :  2.25001e-05
 Reference value :  2.25003e-05
 Reference value :  2.25009e-05
 Reference value :  2.25016e-05
 Reference value :  2.25031e-05
 Reference value :  2.25049e-05
 Reference value :  2.25063e-05
 Reference value :  2.25079e-05
 Reference value :  2.25098e-05
 Reference value :  2.25121e-05
 Reference value :  2.25415e-05
 Reference value :  2.27501e-05
 Reference value :  2.27502e-05
 Reference value :  2.27502e-05
 Reference value :  2.27504e-05
 Reference value :  2.27516e-05
 Reference value :  2.27525e-05
 Reference value :  2.27538e-05
 Reference value :  2.27549e-05
 Reference value :  2.27563e-05
 Reference value :  2.27590e-05
 Reference value :  2.27699e-05
 Reference value :  2.28469e-05
 Reference value :  2.30012e-05
 Reference value :  2.30035e-05
 Reference value :  2.30047e-05
 Reference value :  2.30068e-05
 Reference value :  2.30090e-05
 Reference value :  2.30118e-05
 Reference value :  2.30131e-05
 Reference value :  2.30141e-05
 Reference value :  2.30164e-05
 Reference value :  2.30185e-05
 Reference value :  2.30231e-05
 Reference value :  2.30293e-05
 Reference value :  2.30358e-05
 Reference value :  2.30420e-05
 Reference value :  2.30559e-05
 Reference value :  2.30776e-05
 Reference value :  2.31189e-05
 Reference value :  2.32501e-05
 Reference value :  2.32502e-05
 Reference value :  2.32503e-05
 Reference value :  2.32511e-05
 Reference value :  2.32520e-05
 Reference value :  2.32536e-05
 Reference value :  2.32548e-05
 Reference value :  2.32573e-05
 Reference value :  2.32702e-05
 Reference value :  2.34214e-05
 Reference value :  2.35000e-05
 Reference value :  2.35001e-05
 Reference value :  2.35003e-05
 Reference value :  2.35009e-05
 Reference value :  2.35016e-05
 Reference value :  2.35025e-05
 Reference value :  2.35030e-05
 Reference value :  2.35041e-05
 Reference value :  2.35056e-05
 Reference value :  2.35062e-05
 Reference value :  2.35079e-05
 Reference value :  2.35111e-05
 Reference value :  2.35262e-05
 Reference value :  2.37404e-05
 Reference value :  2.37502e-05
 Reference value :  2.37502e-05
 Reference value :  2.37504e-05
 Reference value :  2.37511e-05
 Reference value :  2.37520e-05
 Reference value :  2.37532e-05
 Reference value :  2.37538e-05
 Reference value :  2.37549e-05
 Reference value :  2.37562e-05
 Reference value :  2.37579e-05
 Reference value :  2.37621e-05
 Reference value :  2.37679e-05
 Reference value :  2.38016e-05
 Reference value :  2.40000e-05
 Reference value :  2.40000e-05
 Reference value :  2.40001e-05
 Reference value :  2.40002e-05
 Reference value :  2.40009e-05
 Reference value :  2.40016e-05
 Reference value :  2.40026e-05
 Reference value :  2.40031e-05
 Reference value :  2.40042e-05
 Reference value :  2.40052e-05
 Reference value :  2.40064e-05
 Reference value :  2.40081e-05
 Reference value :  2.40101e-05
 Reference value :  2.40120e-05
 Reference value :  2.40137e-05
 Reference value :  2.40153e-05
 Reference value :  2.40172e-05
 Reference value :  2.40182e-05
 Reference value :  2.40208e-05
 Reference value :  2.40237e-05
 Reference value :  2.40345e-05
 Reference value :  2.41055e-05
 Reference value :  2.42501e-05
 Reference value :  2.42502e-05
 Reference value :  2.42503e-05
 Reference value :  2.42511e-05
 Reference value :  2.42525e-05
 Reference value :  2.42538e-05
 Reference value :  2.42550e-05
 Reference value :  2.42580e-05
 Reference value :  2.42723e-05
 Reference value :  2.44690e-05
 Reference value :  2.45000e-05
 Reference value :  2.45001e-05
 Reference value :  2.45002e-05
 Reference value :  2.45009e-05
 Reference value :  2.45016e-05
 Reference value :  2.45031e-05
 Reference value :  2.45042e-05
 Reference value :  2.45057e-05
 Reference value :  2.45063e-05
 Reference value :  2.45079e-05
 Reference value :  2.45109e-05
 Reference value :  2.45265e-05
 Reference value :  2.47501e-05
 Reference value :  2.47502e-05
 Reference value :  2.47502e-05
 Reference value :  2.47504e-05
 Reference value :  2.47516e-05
 Reference value :  2.47525e-05
 Reference value :  2.47538e-05
 Reference value :  2.47549e-05
 Reference value :  2.47563e-05
 Reference value :  2.47644e-05
 Reference value :  2.48028e-05
 Reference value :  2.50000e-05
 Reference value :  2.50001e-05
 Reference value :  2.50002e-05
 Reference value :  2.50005e-05
 Reference value :  2.50009e-05
 Reference value :  2.50016e-05
 Reference value :  2.50026e-05
 Reference value :  2.50031e-05
 Reference value :  2.50042e-05
 Reference value :  2.50053e-05
 Reference value :  2.50074e-05
 Reference value :  2.50090e-05
 Reference value :  2.50112e-05
 Reference value :  2.50410e-05
 Reference value :  2.52501e-05
 Reference value :  2.52502e-05
 Reference value :  2.52502e-05
 Reference value :  2.52504e-05
 Reference value :  2.52516e-05
 Reference value :  2.52525e-05
 Reference value :  2.52539e-05
 Reference value :  2.52568e-05
 Reference value :  2.52601e-05
 Reference value :  2.52892e-05
 Reference value :  2.55000e-05
 Reference value :  2.55000e-05
 Reference value :  2.55000e-05
 Reference value :  2.55000e-05
 Reference value :  2.55001e-05
 Reference value :  2.55001e-05
 Reference value :  2.55003e-05
 Reference value :  2.55012e-05
 Reference value :  2.55020e-05
 Reference value :  2.55031e-05
 Reference value :  2.55036e-05
 Reference value :  2.55046e-05
 Reference value :  2.55058e-05
 Reference value :  2.55095e-05
 Reference value :  2.55228e-05
 Reference value :  2.55290e-05
 Reference value :  2.55369e-05
 Reference value :  2.55463e-05
 Reference value :  2.55540e-05
 Reference value :  2.55836e-05
 Reference value :  2.56904e-05
 Reference value :  2.57502e-05
 Reference value :  2.57503e-05
 Reference value :  2.57511e-05
 Reference value :  2.57525e-05
 Reference value :  2.57538e-05
 Reference value :  2.57550e-05
 Reference value :  2.57579e-05
 Reference value :  2.57717e-05
 Reference value :  2.59604e-05
 Reference value :  2.60000e-05
 Reference value :  2.60001e-05
 Reference value :  2.60002e-05
 Reference value :  2.60005e-05
 Reference value :  2.60012e-05
 Reference value :  2.60021e-05
 Reference value :  2.60031e-05
 Reference value :  2.60042e-05
 Reference value :  2.60070e-05
 Reference value :  2.60099e-05
 Reference value :  2.60126e-05
 Reference value :  2.60179e-05
 Reference value :  2.60487e-05
 Reference value :  2.62501e-05
 Reference value :  2.62502e-05
 Reference value :  2.62503e-05
 Reference value :  2.62511e-05
 Reference value :  2.62520e-05
 Reference value :  2.62532e-05
 Reference value :  2.62538e-05
 Reference value :  2.62549e-05
 Reference value :  2.62563e-05
 Reference value :  2.62612e-05
 Reference value :  2.63027e-05
 Reference value :  2.65011e-05
 Reference value :  2.65044e-05
 Reference value :  2.65064e-05
 Reference value :  2.65097e-05
 Reference value :  2.65116e-05
 Reference value :  2.65129e-05
 Reference value :  2.65157e-05
 Reference value :  2.65184e-05
 Reference value :  2.65212e-05
 Reference value :  2.65306e-05
 Reference value :  2.65640e-05
 Reference value :  2.67228e-05
 Reference value :  2.67501e-05
 Reference value :  2.67502e-05
 Reference value :  2.67504e-05
 Reference value :  2.67516e-05
 Reference value :  2.67525e-05
 Reference value :  2.67536e-05
 Reference value :  2.67549e-05
 Reference value :  2.67564e-05
 Reference value :  2.67616e-05
 Reference value :  2.67829e-05
 Reference value :  2.69280e-05
 Reference value :  2.70000e-05
 Reference value :  2.70001e-05
 Reference value :  2.70001e-05
 Reference value :  2.70003e-05
 Reference value :  2.70009e-05
 Reference value :  2.70016e-05
 Reference value :  2.70026e-05
 Reference value :  2.70031e-05
 Reference value :  2.70042e-05
 Reference value :  2.70057e-05
 Reference value :  2.70063e-05
 Reference value :  2.70080e-05
 Reference value :  2.70099e-05
 Reference value :  2.70121e-05
 Reference value :  2.70266e-05
 Reference value :  2.70718e-05
 Reference value :  2.72501e-05
 Reference value :  2.72502e-05
 Reference value :  2.72502e-05
 Reference value :  2.72503e-05
 Reference value :  2.72504e-05
 Reference value :  2.72511e-05
 Reference value :  2.72520e-05
 Reference value :  2.72532e-05
 Reference value :  2.72538e-05
 Reference value :  2.72549e-05
 Reference value :  2.72563e-05
 Reference value :  2.72590e-05
 Reference value :  2.72698e-05
 Reference value :  2.73455e-05
 Reference value :  2.75000e-05
 Reference value :  2.75001e-05
 Reference value :  2.75002e-05
 Reference value :  2.75005e-05
 Reference value :  2.75009e-05
 Reference value :  2.75016e-05
 Reference value :  2.75026e-05
 Reference value :  2.75031e-05
 Reference value :  2.75042e-05
 Reference value :  2.75052e-05
 Reference value :  2.75065e-05
 Reference value :  2.75087e-05
 Reference value :  2.75103e-05
 Reference value :  2.75119e-05
 Reference value :  2.75145e-05
 Reference value :  2.75165e-05
 Reference value :  2.75187e-05
 Reference value :  2.75243e-05
 Reference value :  2.75763e-05
 Reference value :  2.77501e-05
 Reference value :  2.77502e-05
 Reference value :  2.77502e-05
 Reference value :  2.77504e-05
 Reference value :  2.77516e-05
 Reference value :  2.77525e-05
 Reference value :  2.77538e-05
 Reference value :  2.77550e-05
 Reference value :  2.77580e-05
 Reference value :  2.77724e-05
 Reference value :  2.79698e-05
 Reference value :  2.80005e-05
 Reference value :  2.80021e-05
 Reference value :  2.80031e-05
 Reference value :  2.80042e-05
 Reference value :  2.80057e-05
 Reference value :  2.80063e-05
 Reference value :  2.80079e-05
 Reference value :  2.80098e-05
 Reference value :  2.80121e-05
 Reference value :  2.80265e-05
 Reference value :  2.81323e-05
 Reference value :  2.82501e-05
 Reference value :  2.82502e-05
 Reference value :  2.82503e-05
 Reference value :  2.82511e-05
 Reference value :  2.82520e-05
 Reference value :  2.82538e-05
 Reference value :  2.82555e-05
 Reference value :  2.82590e-05
 Reference value :  2.83035e-05
 Reference value :  2.85000e-05
 Reference value :  2.85001e-05
 Reference value :  2.85003e-05
 Reference value :  2.85009e-05
 Reference value :  2.85016e-05
 Reference value :  2.85031e-05
 Reference value :  2.85047e-05
 Reference value :  2.85058e-05
 Reference value :  2.85087e-05
 Reference value :  2.85119e-05
 Reference value :  2.85145e-05
 Reference value :  2.85165e-05
 Reference value :  2.85187e-05
 Reference value :  2.85243e-05
 Reference value :  2.85473e-05
 Reference value :  2.85674e-05
 Reference value :  2.85815e-05
 Reference value :  2.85879e-05
 Reference value :  2.86098e-05
 Reference value :  2.86508e-05
 Reference value :  2.86606e-05
 Reference value :  2.86666e-05
 Reference value :  2.86756e-05
 Reference value :  2.87043e-05
 Reference value :  2.87501e-05
 Reference value :  2.87502e-05
 Reference value :  2.87504e-05
 Reference value :  2.87516e-05
 Reference value :  2.87532e-05
 Reference value :  2.87544e-05
 Reference value :  2.87565e-05
 Reference value :  2.87658e-05
 Reference value :  2.89698e-05
 Reference value :  2.90005e-05
 Reference value :  2.90021e-05
 Reference value :  2.90031e-05
 Reference value :  2.90042e-05
 Reference value :  2.90057e-05
 Reference value :  2.90063e-05
 Reference value :  2.90079e-05
 Reference value :  2.90098e-05
 Reference value :  2.90121e-05
 Reference value :  2.90416e-05
 Reference value :  2.92501e-05
 Reference value :  2.92502e-05
 Reference value :  2.92502e-05
 Reference value :  2.92504e-05
 Reference value :  2.92516e-05
 Reference value :  2.92525e-05
 Reference value :  2.92538e-05
 Reference value :  2.92549e-05
 Reference value :  2.92564e-05
 Reference value :  2.92613e-05
 Reference value :  2.93035e-05
 Reference value :  2.95000e-05
 Reference value :  2.95001e-05
 Reference value :  2.95002e-05
 Reference value :  2.95005e-05
 Reference value :  2.95012e-05
 Reference value :  2.95021e-05
 Reference value :  2.95031e-05
 Reference value :  2.95042e-05
 Reference value :  2.95052e-05
 Reference value :  2.95073e-05
 Reference value :  2.95103e-05
 Reference value :  2.95134e-05
 Reference value :  2.95145e-05
 Reference value :  2.95165e-05
 Reference value :  2.95186e-05
 Reference value :  2.95237e-05
 Reference value :  2.95311e-05
 Reference value :  2.95399e-05
 Reference value :  2.95467e-05
 Reference value :  2.95629e-05
 Reference value :  2.95985e-05
 Reference value :  2.97209e-05
 Reference value :  2.97501e-05
 Reference value :  2.97502e-05
 Reference value :  2.97503e-05
 Reference value :  2.97511e-05
 Reference value :  2.97520e-05
 Reference value :  2.97532e-05
 Reference value :  2.97537e-05
 Reference value :  2.97557e-05
 Reference value :  2.97626e-05
 Reference value :  2.98126e-05
 Reference value :  3.00000e-05
 Reference value :  3.00001e-05
 Reference value :  3.00002e-05
 Reference value :  3.00005e-05
 Reference value :  3.00012e-05
 Reference value :  3.00025e-05
 Reference value :  3.00036e-05
 Reference value :  3.00056e-05
 Reference value :  3.00062e-05
 Reference value :  3.00080e-05
 Reference value :  3.00111e-05
 Reference value :  3.00261e-05
 Reference value :  3.02391e-05
 Reference value :  3.02501e-05
 Reference value :  3.02502e-05
 Reference value :  3.02504e-05
 Reference value :  3.02516e-05
 Reference value :  3.02525e-05
 Reference value :  3.02538e-05
 Reference value :  3.02549e-05
 Reference value :  3.02570e-05
 Reference value :  3.02621e-05
 Reference value :  3.03361e-05
 Reference value :  3.05015e-05
 Reference value :  3.05046e-05
 Reference value :  3.05061e-05
 Reference value :  3.05101e-05
 Reference value :  3.05123e-05
 Reference value :  3.05151e-05
 Reference value :  3.05182e-05
 Reference value :  3.05244e-05
 Reference value :  3.05335e-05
 Reference value :  3.05425e-05
 Reference value :  3.05731e-05
 Reference value :  3.07465e-05
 Reference value :  3.07502e-05
 Reference value :  3.07503e-05
 Reference value :  3.07516e-05
 Reference value :  3.07532e-05
 Reference value :  3.07543e-05
 Reference value :  3.07564e-05
 Reference value :  3.07713e-05
 Reference value :  3.10000e-05
 Reference value :  3.10001e-05
 Reference value :  3.10002e-05
 Reference value :  3.10009e-05
 Reference value :  3.10021e-05
 Reference value :  3.10036e-05
 Reference value :  3.10057e-05
 Reference value :  3.10070e-05
 Reference value :  3.10089e-05
 Reference value :  3.10144e-05
 Reference value :  3.12501e-05
 Reference value :  3.12502e-05
 Reference value :  3.12511e-05
 Reference value :  3.12532e-05
 Reference value :  3.12549e-05
 Reference value :  3.12590e-05
 Reference value :  3.13029e-05
 Reference value :  3.15000e-05
 Reference value :  3.15002e-05
 Reference value :  3.15009e-05
 Reference value :  3.15021e-05
 Reference value :  3.15031e-05
 Reference value :  3.15047e-05
 Reference value :  3.15058e-05
 Reference value :  3.15087e-05
 Reference value :  3.15103e-05
 Reference value :  3.15134e-05
 Reference value :  3.15145e-05
 Reference value :  3.15165e-05
 Reference value :  3.15187e-05
 Reference value :  3.15244e-05
 Reference value :  3.15313e-05
 Reference value :  3.15408e-05
 Reference value :  3.15482e-05
 Reference value :  3.15583e-05
 Reference value :  3.15707e-05
 Reference value :  3.16386e-05
 Reference value :  3.17501e-05
 Reference value :  3.17502e-05
 Reference value :  3.17507e-05
 Reference value :  3.17520e-05
 Reference value :  3.17532e-05
 Reference value :  3.17543e-05
 Reference value :  3.17565e-05
 Reference value :  3.17659e-05
 Reference value :  3.18659e-05
 Reference value :  3.20000e-05
 Reference value :  3.20001e-05
 Reference value :  3.20003e-05
 Reference value :  3.20009e-05
 Reference value :  3.20016e-05
 Reference value :  3.20025e-05
 Reference value :  3.20036e-05
 Reference value :  3.20056e-05
 Reference value :  3.20062e-05
 Reference value :  3.20079e-05
 Reference value :  3.20111e-05
 Reference value :  3.20263e-05
 Reference value :  3.22362e-05
 Reference value :  3.22502e-05
 Reference value :  3.22503e-05
 Reference value :  3.22507e-05
 Reference value :  3.22520e-05
 Reference value :  3.22532e-05
 Reference value :  3.22543e-05
 Reference value :  3.22555e-05
 Reference value :  3.22570e-05
 Reference value :  3.22604e-05
 Reference value :  3.22743e-05
 Reference value :  3.24097e-05
 Reference value :  3.24684e-05
 Reference value :  3.25000e-05
 Reference value :  3.25001e-05
 Reference value :  3.25002e-05
 Reference value :  3.25009e-05
 Reference value :  3.25016e-05
 Reference value :  3.25031e-05
 Reference value :  3.25042e-05
 Reference value :  3.25053e-05
 Reference value :  3.25074e-05
 Reference value :  3.25106e-05
 Reference value :  3.25120e-05
 Reference value :  3.25146e-05
 Reference value :  3.25167e-05
 Reference value :  3.25190e-05
 Reference value :  3.25217e-05
 Reference value :  3.25251e-05
 Reference value :  3.25271e-05
 Reference value :  3.25405e-05
 Reference value :  3.25550e-05
 Reference value :  3.26056e-05
 Reference value :  3.27501e-05
 Reference value :  3.27502e-05
 Reference value :  3.27503e-05
 Reference value :  3.27511e-05
 Reference value :  3.27520e-05
 Reference value :  3.27532e-05
 Reference value :  3.27543e-05
 Reference value :  3.27565e-05
 Reference value :  3.27659e-05
 Reference value :  3.28658e-05
 Reference value :  3.30000e-05
 Reference value :  3.30001e-05
 Reference value :  3.30002e-05
 Reference value :  3.30009e-05
 Reference value :  3.30020e-05
 Reference value :  3.30036e-05
 Reference value :  3.30056e-05
 Reference value :  3.30069e-05
 Reference value :  3.30099e-05
 Reference value :  3.30191e-05
 Reference value :  3.31261e-05
 Reference value :  3.32501e-05
 Reference value :  3.32502e-05
 Reference value :  3.32507e-05
 Reference value :  3.32520e-05
 Reference value :  3.32538e-05
 Reference value :  3.32549e-05
 Reference value :  3.32562e-05
 Reference value :  3.32589e-05
 Reference value :  3.32647e-05
 Reference value :  3.33010e-05
 Reference value :  3.35016e-05
 Reference value :  3.35063e-05
 Reference value :  3.35092e-05
 Reference value :  3.35115e-05
 Reference value :  3.35162e-05
 Reference value :  3.35249e-05
 Reference value :  3.35469e-05
 Reference value :  3.35559e-05
 Reference value :  3.35623e-05
 Reference value :  3.35770e-05
 Reference value :  3.36352e-05
 Reference value :  3.37501e-05
 Reference value :  3.37502e-05
 Reference value :  3.37502e-05
 Reference value :  3.37504e-05
 Reference value :  3.37516e-05
 Reference value :  3.37525e-05
 Reference value :  3.37539e-05
 Reference value :  3.37557e-05
 Reference value :  3.37583e-05
 Reference value :  3.37664e-05
 Reference value :  3.38735e-05
 Reference value :  3.40000e-05
 Reference value :  3.40000e-05
 Reference value :  3.40000e-05
 Reference value :  3.40000e-05
 Reference value :  3.40001e-05
 Reference value :  3.40002e-05
 Reference value :  3.40007e-05
 Reference value :  3.40020e-05
 Reference value :  3.40031e-05
 Reference value :  3.40042e-05
 Reference value :  3.40046e-05
 Reference value :  3.40058e-05
 Reference value :  3.40095e-05
 Reference value :  3.40228e-05
 Reference value :  3.40290e-05
 Reference value :  3.40367e-05
 Reference value :  3.40422e-05
 Reference value :  3.40484e-05
 Reference value :  3.40619e-05
 Reference value :  3.41049e-05
 Reference value :  3.42501e-05
 Reference value :  3.42502e-05
 Reference value :  3.42502e-05
 Reference value :  3.42503e-05
 Reference value :  3.42507e-05
 Reference value :  3.42516e-05
 Reference value :  3.42525e-05
 Reference value :  3.42538e-05
 Reference value :  3.42550e-05
 Reference value :  3.42579e-05
 Reference value :  3.42718e-05
 Reference value :  3.44607e-05
 Reference value :  3.45000e-05
 Reference value :  3.45001e-05
 Reference value :  3.45003e-05
 Reference value :  3.45009e-05
 Reference value :  3.45016e-05
 Reference value :  3.45026e-05
 Reference value :  3.45036e-05
 Reference value :  3.45056e-05
 Reference value :  3.45099e-05
 Reference value :  3.45126e-05
 Reference value :  3.45179e-05
 Reference value :  3.45487e-05
 Reference value :  3.47501e-05
 Reference value :  3.47502e-05
 Reference value :  3.47502e-05
 Reference value :  3.47504e-05
 Reference value :  3.47516e-05
 Reference value :  3.47525e-05
 Reference value :  3.47538e-05
 Reference value :  3.47549e-05
 Reference value :  3.47563e-05
 Reference value :  3.47612e-05
 Reference value :  3.48027e-05
 Reference value :  3.50000e-05
 Reference value :  3.50001e-05
 Reference value :  3.50002e-05
 Reference value :  3.50005e-05
 Reference value :  3.50012e-05
 Reference value :  3.50021e-05
 Reference value :  3.50031e-05
 Reference value :  3.50047e-05
 Reference value :  3.50058e-05
 Reference value :  3.50087e-05
 Reference value :  3.50103e-05
 Reference value :  3.50134e-05
 Reference value :  3.50156e-05
 Reference value :  3.50176e-05
 Reference value :  3.50199e-05
 Reference value :  3.50294e-05
 Reference value :  3.51267e-05
 Reference value :  3.52501e-05
 Reference value :  3.52502e-05
 Reference value :  3.52503e-05
 Reference value :  3.52507e-05
 Reference value :  3.52520e-05
 Reference value :  3.52532e-05
 Reference value :  3.52544e-05
 Reference value :  3.52557e-05
 Reference value :  3.52597e-05
 Reference value :  3.52724e-05
 Reference value :  3.53645e-05
 Reference value :  3.55000e-05
 Reference value :  3.55001e-05
 Reference value :  3.55002e-05
 Reference value :  3.55005e-05
 Reference value :  3.55012e-05
 Reference value :  3.55021e-05
 Reference value :  3.55031e-05
 Reference value :  3.55042e-05
 Reference value :  3.55063e-05
 Reference value :  3.55079e-05
 Reference value :  3.55111e-05
 Reference value :  3.55261e-05
 Reference value :  3.57415e-05
 Reference value :  3.57501e-05
 Reference value :  3.57502e-05
 Reference value :  3.57507e-05
 Reference value :  3.57516e-05
 Reference value :  3.57525e-05
 Reference value :  3.57538e-05
 Reference value :  3.57549e-05
 Reference value :  3.57563e-05
 Reference value :  3.57645e-05
 Reference value :  3.58472e-05
 Reference value :  3.60011e-05
 Reference value :  3.60043e-05
 Reference value :  3.60062e-05
 Reference value :  3.60094e-05
 Reference value :  3.60112e-05
 Reference value :  3.60125e-05
 Reference value :  3.60149e-05
 Reference value :  3.60168e-05
 Reference value :  3.60190e-05
 Reference value :  3.60243e-05
 Reference value :  3.60458e-05
 Reference value :  3.61798e-05
 Reference value :  3.62501e-05
 Reference value :  3.62502e-05
 Reference value :  3.62502e-05
 Reference value :  3.62503e-05
 Reference value :  3.62511e-05
 Reference value :  3.62520e-05
 Reference value :  3.62531e-05
 Reference value :  3.62537e-05
 Reference value :  3.62549e-05
 Reference value :  3.62564e-05
 Reference value :  3.62616e-05
 Reference value :  3.62830e-05
 Reference value :  3.64288e-05
 Reference value :  3.65000e-05
 Reference value :  3.65001e-05
 Reference value :  3.65002e-05
 Reference value :  3.65003e-05
 Reference value :  3.65009e-05
 Reference value :  3.65016e-05
 Reference value :  3.65026e-05
 Reference value :  3.65031e-05
 Reference value :  3.65042e-05
 Reference value :  3.65057e-05
 Reference value :  3.65063e-05
 Reference value :  3.65079e-05
 Reference value :  3.65098e-05
 Reference value :  3.65121e-05
 Reference value :  3.65265e-05
 Reference value :  3.66319e-05
 Reference value :  3.67501e-05
 Reference value :  3.67502e-05
 Reference value :  3.67503e-05
 Reference value :  3.67507e-05
 Reference value :  3.67516e-05
 Reference value :  3.67525e-05
 Reference value :  3.67538e-05
 Reference value :  3.67549e-05
 Reference value :  3.67563e-05
 Reference value :  3.67590e-05
 Reference value :  3.67809e-05
 Reference value :  3.70000e-05
 Reference value :  3.70001e-05
 Reference value :  3.70001e-05
 Reference value :  3.70003e-05
 Reference value :  3.70009e-05
 Reference value :  3.70016e-05
 Reference value :  3.70031e-05
 Reference value :  3.70042e-05
 Reference value :  3.70052e-05
 Reference value :  3.70073e-05
 Reference value :  3.70103e-05
 Reference value :  3.70134e-05
 Reference value :  3.70145e-05
 Reference value :  3.70165e-05
 Reference value :  3.70187e-05
 Reference value :  3.70243e-05
 Reference value :  3.70474e-05
 Reference value :  3.70722e-05
 Reference value :  3.70892e-05
 Reference value :  3.71049e-05
 Reference value :  3.71383e-05
 Reference value :  3.71522e-05
 Reference value :  3.71645e-05
 Reference value :  3.71703e-05
 Reference value :  3.71912e-05
 Reference value :  3.72387e-05
 Reference value :  3.72501e-05
 Reference value :  3.72502e-05
 Reference value :  3.72504e-05
 Reference value :  3.72516e-05
 Reference value :  3.72525e-05
 Reference value :  3.72538e-05
 Reference value :  3.72550e-05
 Reference value :  3.72580e-05
 Reference value :  3.72724e-05
 Reference value :  3.74697e-05
 Reference value :  3.75000e-05
 Reference value :  3.75001e-05
 Reference value :  3.75003e-05
 Reference value :  3.75009e-05
 Reference value :  3.75016e-05
 Reference value :  3.75031e-05
 Reference value :  3.75042e-05
 Reference value :  3.75063e-05
 Reference value :  3.75079e-05
 Reference value :  3.75111e-05
 Reference value :  3.75262e-05
 Reference value :  3.77501e-05
 Reference value :  3.77502e-05
 Reference value :  3.77503e-05
 Reference value :  3.77507e-05
 Reference value :  3.77520e-05
 Reference value :  3.77538e-05
 Reference value :  3.77549e-05
 Reference value :  3.77563e-05
 Reference value :  3.77613e-05
 Reference value :  3.78032e-05
 Reference value :  3.80000e-05
 Reference value :  3.80001e-05
 Reference value :  3.80002e-05
 Reference value :  3.80005e-05
 Reference value :  3.80012e-05
 Reference value :  3.80021e-05
 Reference value :  3.80031e-05
 Reference value :  3.80042e-05
 Reference value :  3.80052e-05
 Reference value :  3.80073e-05
 Reference value :  3.80103e-05
 Reference value :  3.80134e-05
 Reference value :  3.80145e-05
 Reference value :  3.80165e-05
 Reference value :  3.80186e-05
 Reference value :  3.80216e-05
 Reference value :  3.80314e-05
 Reference value :  3.80406e-05
 Reference value :  3.80442e-05
 Reference value :  3.80532e-05
 Reference value :  3.80666e-05
 Reference value :  3.80915e-05
 Reference value :  3.81553e-05
 Reference value :  3.82501e-05
 Reference value :  3.82502e-05
 Reference value :  3.82503e-05
 Reference value :  3.82504e-05
 Reference value :  3.82511e-05
 Reference value :  3.82520e-05
 Reference value :  3.82532e-05
 Reference value :  3.82537e-05
 Reference value :  3.82550e-05
 Reference value :  3.82565e-05
 Reference value :  3.82626e-05
 Reference value :  3.82860e-05
 Reference value :  3.84730e-05
 Reference value :  3.85005e-05
 Reference value :  3.85018e-05
 Reference value :  3.85029e-05
 Reference value :  3.85041e-05
 Reference value :  3.85056e-05
 Reference value :  3.85062e-05
 Reference value :  3.85089e-05
 Reference value :  3.85110e-05
 Reference value :  3.85415e-05
 Reference value :  3.87501e-05
 Reference value :  3.87502e-05
 Reference value :  3.87504e-05
 Reference value :  3.87516e-05
 Reference value :  3.87525e-05
 Reference value :  3.87538e-05
 Reference value :  3.87549e-05
 Reference value :  3.87562e-05
 Reference value :  3.87579e-05
 Reference value :  3.87621e-05
 Reference value :  3.87845e-05
 Reference value :  3.90000e-05
 Reference value :  3.90001e-05
 Reference value :  3.90001e-05
 Reference value :  3.90003e-05
 Reference value :  3.90009e-05
 Reference value :  3.90016e-05
 Reference value :  3.90026e-05
 Reference value :  3.90036e-05
 Reference value :  3.90052e-05
 Reference value :  3.90071e-05
 Reference value :  3.90092e-05
 Reference value :  3.90110e-05
 Reference value :  3.90130e-05
 Reference value :  3.90144e-05
 Reference value :  3.90153e-05
 Reference value :  3.90181e-05
 Reference value :  3.90256e-05
 Reference value :  3.90295e-05
 Reference value :  3.90380e-05
 Reference value :  3.90493e-05
 Reference value :  3.90890e-05
 Reference value :  3.92501e-05
 Reference value :  3.92502e-05
 Reference value :  3.92503e-05
 Reference value :  3.92507e-05
 Reference value :  3.92520e-05
 Reference value :  3.92532e-05
 Reference value :  3.92544e-05
 Reference value :  3.92557e-05
 Reference value :  3.92658e-05
 Reference value :  3.94693e-05
 Reference value :  3.95000e-05
 Reference value :  3.95001e-05
 Reference value :  3.95002e-05
 Reference value :  3.95009e-05
 Reference value :  3.95016e-05
 Reference value :  3.95026e-05
 Reference value :  3.95031e-05
 Reference value :  3.95042e-05
 Reference value :  3.95057e-05
 Reference value :  3.95063e-05
 Reference value :  3.95079e-05
 Reference value :  3.95098e-05
 Reference value :  3.95121e-05
 Reference value :  3.95416e-05
 Reference value :  3.97501e-05
 Reference value :  3.97502e-05
 Reference value :  3.97503e-05
 Reference value :  3.97511e-05
 Reference value :  3.97520e-05
 Reference value :  3.97538e-05
 Reference value :  3.97549e-05
 Reference value :  3.97563e-05
 Reference value :  3.97612e-05
 Reference value :  3.97810e-05
 Reference value :  4.00000e-05
 Reference value :  4.00001e-05
 Reference value :  4.00001e-05
 Reference value :  4.00003e-05
 Reference value :  4.00009e-05
 Reference value :  4.00016e-05
 Reference value :  4.00026e-05
 Reference value :  4.00031e-05
 Reference value :  4.00042e-05
 Reference value :  4.00052e-05
 Reference value :  4.00073e-05
 Reference value :  4.00103e-05
 Reference value :  4.00134e-05
 Reference value :  4.00145e-05
 Reference value :  4.00165e-05
 Reference value :  4.00187e-05
 Reference value :  4.00243e-05
 Reference value :  4.00314e-05
 Reference value :  4.00382e-05
 Reference value :  4.00439e-05
 Reference value :  4.00585e-05
 Reference value :  4.00776e-05
 Reference value :  4.01969e-05
 Reference value :  4.02501e-05
 Reference value :  4.02502e-05
 Reference value :  4.02503e-05
 Reference value :  4.02516e-05
 Reference value :  4.02532e-05
 Reference value :  4.02550e-05
 Reference value :  4.02597e-05
 Reference value :  4.03135e-05
 Reference value :  4.03439e-05
 Reference value :  4.03760e-05
 Reference value :  4.04179e-05
 Reference value :  4.05000e-05
 Reference value :  4.05001e-05
 Reference value :  4.05002e-05
 Reference value :  4.05009e-05
 Reference value :  4.05016e-05
 Reference value :  4.05031e-05
 Reference value :  4.05049e-05
 Reference value :  4.05063e-05
 Reference value :  4.05079e-05
 Reference value :  4.05110e-05
 Reference value :  4.05190e-05
 Reference value :  4.05698e-05
 Reference value :  4.07501e-05
 Reference value :  4.07502e-05
 Reference value :  4.07503e-05
 Reference value :  4.07504e-05
 Reference value :  4.07511e-05
 Reference value :  4.07520e-05
 Reference value :  4.07532e-05
 Reference value :  4.07544e-05
 Reference value :  4.07555e-05
 Reference value :  4.07572e-05
 Reference value :  4.07645e-05
 Reference value :  4.08474e-05
 Reference value :  4.10011e-05
 Reference value :  4.10046e-05
 Reference value :  4.10067e-05
 Reference value :  4.10090e-05
 Reference value :  4.10117e-05
 Reference value :  4.10130e-05
 Reference value :  4.10152e-05
 Reference value :  4.10174e-05
 Reference value :  4.10211e-05
 Reference value :  4.10261e-05
 Reference value :  4.10317e-05
 Reference value :  4.10387e-05
 Reference value :  4.10517e-05
 Reference value :  4.10821e-05
 Reference value :  4.12236e-05
 Reference value :  4.12501e-05
 Reference value :  4.12502e-05
 Reference value :  4.12504e-05
 Reference value :  4.12516e-05
 Reference value :  4.12525e-05
 Reference value :  4.12536e-05
 Reference value :  4.12548e-05
 Reference value :  4.12562e-05
 Reference value :  4.12643e-05
 Reference value :  4.13413e-05
 Reference value :  4.15001e-05
 Reference value :  4.15002e-05
 Reference value :  4.15009e-05
 Reference value :  4.15020e-05
 Reference value :  4.15030e-05
 Reference value :  4.15049e-05
 Reference value :  4.15062e-05
 Reference value :  4.15089e-05
 Reference value :  4.15122e-05
 Reference value :  4.15690e-05
 Reference value :  4.17501e-05
 Reference value :  4.17503e-05
 Reference value :  4.17511e-05
 Reference value :  4.17520e-05
 Reference value :  4.17538e-05
 Reference value :  4.17555e-05
 Reference value :  4.17570e-05
 Reference value :  4.17604e-05
 Reference value :  4.18010e-05
 Reference value :  4.20000e-05
 Reference value :  4.20002e-05
 Reference value :  4.20009e-05
 Reference value :  4.20021e-05
 Reference value :  4.20036e-05
 Reference value :  4.20047e-05
 Reference value :  4.20057e-05
 Reference value :  4.20077e-05
 Reference value :  4.20093e-05
 Reference value :  4.20109e-05
 Reference value :  4.20159e-05
 Reference value :  4.20254e-05
 Reference value :  4.20333e-05
 Reference value :  4.20373e-05
 Reference value :  4.20459e-05
 Reference value :  4.20682e-05
 Reference value :  4.21704e-05
 Reference value :  4.22501e-05
 Reference value :  4.22502e-05
 Reference value :  4.22503e-05
 Reference value :  4.22507e-05
 Reference value :  4.22516e-05
 Reference value :  4.22525e-05
 Reference value :  4.22539e-05
 Reference value :  4.22558e-05
 Reference value :  4.22584e-05
 Reference value :  4.22631e-05
 Reference value :  4.22892e-05
 Reference value :  4.25000e-05
 Reference value :  4.25000e-05
 Reference value :  4.25000e-05
 Reference value :  4.25000e-05
 Reference value :  4.25001e-05
 Reference value :  4.25001e-05
 Reference value :  4.25003e-05
 Reference value :  4.25012e-05
 Reference value :  4.25020e-05
 Reference value :  4.25031e-05
 Reference value :  4.25042e-05
 Reference value :  4.25052e-05
 Reference value :  4.25065e-05
 Reference value :  4.25169e-05
 Reference value :  4.25229e-05
 Reference value :  4.25290e-05
 Reference value :  4.25333e-05
 Reference value :  4.25397e-05
 Reference value :  4.25494e-05
 Reference value :  4.25641e-05
 Reference value :  4.26002e-05
 Reference value :  4.27501e-05
 Reference value :  4.27502e-05
 Reference value :  4.27503e-05
 Reference value :  4.27511e-05
 Reference value :  4.27525e-05
 Reference value :  4.27538e-05
 Reference value :  4.27550e-05
 Reference value :  4.27595e-05
 Reference value :  4.27843e-05
 Reference value :  4.30000e-05
 Reference value :  4.30001e-05
 Reference value :  4.30001e-05
 Reference value :  4.30003e-05
 Reference value :  4.30012e-05
 Reference value :  4.30021e-05
 Reference value :  4.30031e-05
 Reference value :  4.30042e-05
 Reference value :  4.30070e-05
 Reference value :  4.30099e-05
 Reference value :  4.30126e-05
 Reference value :  4.30161e-05
 Reference value :  4.30256e-05
 Reference value :  4.30740e-05
 Reference value :  4.32501e-05
 Reference value :  4.32502e-05
 Reference value :  4.32502e-05
 Reference value :  4.32504e-05
 Reference value :  4.32516e-05
 Reference value :  4.32525e-05
 Reference value :  4.32538e-05
 Reference value :  4.32549e-05
 Reference value :  4.32563e-05
 Reference value :  4.32612e-05
 Reference value :  4.32808e-05
 Reference value :  4.34339e-05
 Reference value :  4.35011e-05
 Reference value :  4.35044e-05
 Reference value :  4.35064e-05
 Reference value :  4.35085e-05
 Reference value :  4.35116e-05
 Reference value :  4.35129e-05
 Reference value :  4.35157e-05
 Reference value :  4.35197e-05
 Reference value :  4.35260e-05
 Reference value :  4.35642e-05
 Reference value :  4.37501e-05
 Reference value :  4.37502e-05
 Reference value :  4.37503e-05
 Reference value :  4.37507e-05
 Reference value :  4.37516e-05
 Reference value :  4.37520e-05
 Reference value :  4.37531e-05
 Reference value :  4.37536e-05
 Reference value :  4.37548e-05
 Reference value :  4.37564e-05
 Reference value :  4.37615e-05
 Reference value :  4.37828e-05
 Reference value :  4.39267e-05
 Reference value :  4.40000e-05
 Reference value :  4.40001e-05
 Reference value :  4.40001e-05
 Reference value :  4.40002e-05
 Reference value :  4.40005e-05
 Reference value :  4.40012e-05
 Reference value :  4.40016e-05
 Reference value :  4.40026e-05
 Reference value :  4.40031e-05
 Reference value :  4.40042e-05
 Reference value :  4.40057e-05
 Reference value :  4.40063e-05
 Reference value :  4.40080e-05
 Reference value :  4.40109e-05
 Reference value :  4.40266e-05
 Reference value :  4.42501e-05
 Reference value :  4.42502e-05
 Reference value :  4.42502e-05
 Reference value :  4.42504e-05
 Reference value :  4.42516e-05
 Reference value :  4.42525e-05
 Reference value :  4.42538e-05
 Reference value :  4.42549e-05
 Reference value :  4.42563e-05
 Reference value :  4.42612e-05
 Reference value :  4.43023e-05
 Reference value :  4.45000e-05
 Reference value :  4.45001e-05
 Reference value :  4.45002e-05
 Reference value :  4.45009e-05
 Reference value :  4.45016e-05
 Reference value :  4.45031e-05
 Reference value :  4.45042e-05
 Reference value :  4.45052e-05
 Reference value :  4.45073e-05
 Reference value :  4.45103e-05
 Reference value :  4.45134e-05
 Reference value :  4.45156e-05
 Reference value :  4.45165e-05
 Reference value :  4.45187e-05
 Reference value :  4.45292e-05
 Reference value :  4.46274e-05
 Reference value :  4.47501e-05
 Reference value :  4.47502e-05
 Reference value :  4.47507e-05
 Reference value :  4.47520e-05
 Reference value :  4.47538e-05
 Reference value :  4.47550e-05
 Reference value :  4.47580e-05
 Reference value :  4.47724e-05
 Reference value :  4.49697e-05
 Reference value :  4.50001e-05
 Reference value :  4.50002e-05
 Reference value :  4.50009e-05
 Reference value :  4.50021e-05
 Reference value :  4.50031e-05
 Reference value :  4.50049e-05
 Reference value :  4.50063e-05
 Reference value :  4.50079e-05
 Reference value :  4.50098e-05
 Reference value :  4.50144e-05
 Reference value :  4.50694e-05
 Reference value :  4.52501e-05
 Reference value :  4.52502e-05
 Reference value :  4.52503e-05
 Reference value :  4.52511e-05
 Reference value :  4.52520e-05
 Reference value :  4.52538e-05
 Reference value :  4.52549e-05
 Reference value :  4.52563e-05
 Reference value :  4.52613e-05
 Reference value :  4.53475e-05
 Reference value :  4.55000e-05
 Reference value :  4.55001e-05
 Reference value :  4.55005e-05
 Reference value :  4.55012e-05
 Reference value :  4.55021e-05
 Reference value :  4.55036e-05
 Reference value :  4.55052e-05
 Reference value :  4.55087e-05
 Reference value :  4.55119e-05
 Reference value :  4.55145e-05
 Reference value :  4.55165e-05
 Reference value :  4.55199e-05
 Reference value :  4.55473e-05
 Reference value :  4.55755e-05
 Reference value :  4.55946e-05
 Reference value :  4.56214e-05
 Reference value :  4.56320e-05
 Reference value :  4.56424e-05
 Reference value :  4.56590e-05
 Reference value :  4.56686e-05
 Reference value :  4.56997e-05
 Reference value :  4.57501e-05
 Reference value :  4.57502e-05
 Reference value :  4.57503e-05
 Reference value :  4.57511e-05
 Reference value :  4.57520e-05
 Reference value :  4.57532e-05
 Reference value :  4.57544e-05
 Reference value :  4.57557e-05
 Reference value :  4.57625e-05
 Reference value :  4.58119e-05
 Reference value :  4.60005e-05
 Reference value :  4.60021e-05
 Reference value :  4.60031e-05
 Reference value :  4.60042e-05
 Reference value :  4.60057e-05
 Reference value :  4.60070e-05
 Reference value :  4.60079e-05
 Reference value :  4.60098e-05
 Reference value :  4.60144e-05
 Reference value :  4.60716e-05
 Reference value :  4.62501e-05
 Reference value :  4.62502e-05
 Reference value :  4.62504e-05
 Reference value :  4.62511e-05
 Reference value :  4.62520e-05
 Reference value :  4.62532e-05
 Reference value :  4.62538e-05
 Reference value :  4.62549e-05
 Reference value :  4.62564e-05
 Reference value :  4.62590e-05
 Reference value :  4.62645e-05
 Reference value :  4.62812e-05
 Reference value :  4.63480e-05
 Reference value :  4.65000e-05
 Reference value :  4.65000e-05
 Reference value :  4.65001e-05
 Reference value :  4.65001e-05
 Reference value :  4.65003e-05
 Reference value :  4.65009e-05
 Reference value :  4.65016e-05
 Reference value :  4.65031e-05
 Reference value :  4.65042e-05
 Reference value :  4.65052e-05
 Reference value :  4.65065e-05
 Reference value :  4.65103e-05
 Reference value :  4.65134e-05
 Reference value :  4.65145e-05
 Reference value :  4.65165e-05
 Reference value :  4.65187e-05
 Reference value :  4.65245e-05
 Reference value :  4.65319e-05
 Reference value :  4.65415e-05
 Reference value :  4.65505e-05
 Reference value :  4.65624e-05
 Reference value :  4.65751e-05
 Reference value :  4.66353e-05
 Reference value :  4.67501e-05
 Reference value :  4.67502e-05
 Reference value :  4.67503e-05
 Reference value :  4.67507e-05
 Reference value :  4.67516e-05
 Reference value :  4.67525e-05
 Reference value :  4.67537e-05
 Reference value :  4.67557e-05
 Reference value :  4.67625e-05
 Reference value :  4.68651e-05
 Reference value :  4.70000e-05
 Reference value :  4.70001e-05
 Reference value :  4.70002e-05
 Reference value :  4.70009e-05
 Reference value :  4.70020e-05
 Reference value :  4.70030e-05
 Reference value :  4.70049e-05
 Reference value :  4.70062e-05
 Reference value :  4.70079e-05
 Reference value :  4.70111e-05
 Reference value :  4.70262e-05
 Reference value :  4.72501e-05
 Reference value :  4.72502e-05
 Reference value :  4.72503e-05
 Reference value :  4.72511e-05
 Reference value :  4.72520e-05
 Reference value :  4.72532e-05
 Reference value :  4.72538e-05
 Reference value :  4.72549e-05
 Reference value :  4.72562e-05
 Reference value :  4.72589e-05
 Reference value :  4.72647e-05
 Reference value :  4.72845e-05
 Reference value :  4.75000e-05
 Reference value :  4.75001e-05
 Reference value :  4.75005e-05
 Reference value :  4.75016e-05
 Reference value :  4.75031e-05
 Reference value :  4.75052e-05
 Reference value :  4.75071e-05
 Reference value :  4.75101e-05
 Reference value :  4.75120e-05
 Reference value :  4.75137e-05
 Reference value :  4.75153e-05
 Reference value :  4.75181e-05
 Reference value :  4.75226e-05
 Reference value :  4.75284e-05
 Reference value :  4.75337e-05
 Reference value :  4.75387e-05
 Reference value :  4.75514e-05
 Reference value :  4.75801e-05
 Reference value :  4.77003e-05
[...]
 Reference value :  1.67004e-04
 Reference value :  1.67006e-04
 Reference value :  1.67006e-04
 Reference value :  1.67008e-04
 Reference value :  1.67011e-04
 Reference value :  1.67026e-04
 Reference value :  1.67240e-04
 Reference value :  1.67250e-04
 Reference value :  1.67250e-04
 Reference value :  1.67250e-04
 Reference value :  1.67251e-04
 Reference value :  1.67252e-04
 Reference value :  1.67253e-04
 Reference value :  1.67254e-04
 Reference value :  1.67255e-04
 Reference value :  1.67256e-04
 Reference value :  1.67259e-04
 Reference value :  1.67265e-04
 Reference value :  1.67302e-04
 Reference value :  1.67500e-04
 Reference value :  1.67500e-04
 Reference value :  1.67500e-04
 Reference value :  1.67501e-04
 Reference value :  1.67501e-04
 Reference value :  1.67502e-04
 Reference value :  1.67503e-04
 Reference value :  1.67504e-04
 Reference value :  1.67505e-04
 Reference value :  1.67506e-04
 Reference value :  1.67508e-04
 Reference value :  1.67510e-04
 Reference value :  1.67512e-04
 Reference value :  1.67514e-04
 Reference value :  1.67515e-04
 Reference value :  1.67518e-04
 Reference value :  1.67523e-04
 Reference value :  1.67528e-04
 Reference value :  1.67534e-04
 Reference value :  1.67539e-04
 Reference value :  1.67545e-04
 Reference value :  1.67565e-04
 Reference value :  1.67651e-04
 Reference value :  1.67750e-04
 Reference value :  1.67750e-04
 Reference value :  1.67750e-04
 Reference value :  1.67751e-04
 Reference value :  1.67752e-04
 Reference value :  1.67754e-04
 Reference value :  1.67755e-04
 Reference value :  1.67756e-04
 Reference value :  1.67763e-04
 Reference value :  1.67785e-04
 Reference value :  1.67969e-04
 Reference value :  1.68000e-04
 Reference value :  1.68000e-04
 Reference value :  1.68000e-04
 Reference value :  1.68001e-04
 Reference value :  1.68002e-04
 Reference value :  1.68003e-04
 Reference value :  1.68003e-04
 Reference value :  1.68004e-04
 Reference value :  1.68006e-04
 Reference value :  1.68006e-04
 Reference value :  1.68008e-04
 Reference value :  1.68010e-04
 Reference value :  1.68014e-04
 Reference value :  1.68042e-04
 Reference value :  1.68250e-04
 Reference value :  1.68250e-04
 Reference value :  1.68250e-04
 Reference value :  1.68250e-04
 Reference value :  1.68250e-04
 Reference value :  1.68251e-04
 Reference value :  1.68252e-04
 Reference value :  1.68252e-04
 Reference value :  1.68253e-04
 Reference value :  1.68254e-04
 Reference value :  1.68255e-04
 Reference value :  1.68256e-04
 Reference value :  1.68259e-04
 Reference value :  1.68264e-04
 Reference value :  1.68303e-04
 Reference value :  1.68500e-04
 Reference value :  1.68500e-04
 Reference value :  1.68500e-04
 Reference value :  1.68500e-04
 Reference value :  1.68501e-04
 Reference value :  1.68502e-04
 Reference value :  1.68503e-04
 Reference value :  1.68503e-04
 Reference value :  1.68504e-04
 Reference value :  1.68505e-04
 Reference value :  1.68506e-04
 Reference value :  1.68509e-04
 Reference value :  1.68510e-04
 Reference value :  1.68513e-04
 Reference value :  1.68515e-04
 Reference value :  1.68517e-04
 Reference value :  1.68519e-04
 Reference value :  1.68521e-04
 Reference value :  1.68527e-04
 Reference value :  1.68533e-04
 Reference value :  1.68538e-04
 Reference value :  1.68553e-04
 Reference value :  1.68573e-04
 Reference value :  1.68635e-04
 Reference value :  1.68750e-04
 Reference value :  1.68750e-04
 Reference value :  1.68750e-04
 Reference value :  1.68750e-04
 Reference value :  1.68751e-04
 Reference value :  1.68752e-04
 Reference value :  1.68753e-04
 Reference value :  1.68754e-04
 Reference value :  1.68755e-04
 Reference value :  1.68758e-04
 Reference value :  1.68766e-04
 Reference value :  1.68866e-04
 Reference value :  1.69000e-04
 Reference value :  1.69000e-04
 Reference value :  1.69000e-04
 Reference value :  1.69000e-04
 Reference value :  1.69001e-04
 Reference value :  1.69002e-04
 Reference value :  1.69003e-04
 Reference value :  1.69003e-04
 Reference value :  1.69004e-04
 Reference value :  1.69006e-04
 Reference value :  1.69006e-04
 Reference value :  1.69008e-04
 Reference value :  1.69011e-04
 Reference value :  1.69026e-04
 Reference value :  1.69126e-04
 Reference value :  1.69250e-04
 Reference value :  1.69250e-04
 Reference value :  1.69250e-04
 Reference value :  1.69251e-04
 Reference value :  1.69252e-04
 Reference value :  1.69253e-04
 Reference value :  1.69254e-04
 Reference value :  1.69255e-04
 Reference value :  1.69256e-04
 Reference value :  1.69259e-04
 Reference value :  1.69265e-04
 Reference value :  1.69284e-04
 Reference value :  1.69403e-04
 Reference value :  1.69500e-04
 Reference value :  1.69500e-04
 Reference value :  1.69500e-04
 Reference value :  1.69501e-04
 Reference value :  1.69502e-04
 Reference value :  1.69503e-04
 Reference value :  1.69504e-04
 Reference value :  1.69505e-04
 Reference value :  1.69507e-04
 Reference value :  1.69508e-04
 Reference value :  1.69509e-04
 Reference value :  1.69511e-04
 Reference value :  1.69517e-04
 Reference value :  1.69526e-04
 Reference value :  1.69549e-04
 Reference value :  1.69567e-04
 Reference value :  1.69635e-04
 Reference value :  1.69750e-04
 Reference value :  1.69750e-04
 Reference value :  1.69750e-04
 Reference value :  1.69751e-04
 Reference value :  1.69752e-04
 Reference value :  1.69754e-04
 Reference value :  1.69757e-04
 Reference value :  1.69763e-04
 Reference value :  1.69819e-04
 Reference value :  1.70000e-04
 Reference value :  1.70000e-04
 Reference value :  1.70000e-04
 Reference value :  1.70000e-04
 Reference value :  1.70000e-04
 Reference value :  1.70000e-04
 Reference value :  1.70000e-04
 Reference value :  1.70002e-04
 Reference value :  1.70003e-04
 Reference value :  1.70004e-04
 Reference value :  1.70005e-04
 Reference value :  1.70008e-04
 Reference value :  1.70023e-04
 Reference value :  1.70029e-04
 Reference value :  1.70033e-04
 Reference value :  1.70039e-04
 Reference value :  1.70044e-04
 Reference value :  1.70055e-04
 Reference value :  1.70063e-04
 Reference value :  1.70090e-04
 Reference value :  1.70250e-04
 Reference value :  1.70250e-04
 Reference value :  1.70250e-04
 Reference value :  1.70250e-04
 Reference value :  1.70251e-04
 Reference value :  1.70252e-04
 Reference value :  1.70253e-04
 Reference value :  1.70254e-04
 Reference value :  1.70255e-04
 Reference value :  1.70258e-04
 Reference value :  1.70265e-04
 Reference value :  1.70310e-04
 Reference value :  1.70500e-04
 Reference value :  1.70500e-04
 Reference value :  1.70500e-04
 Reference value :  1.70500e-04
 Reference value :  1.70500e-04
 Reference value :  1.70501e-04
 Reference value :  1.70502e-04
 Reference value :  1.70503e-04
 Reference value :  1.70505e-04
 Reference value :  1.70507e-04
 Reference value :  1.70510e-04
 Reference value :  1.70513e-04
 Reference value :  1.70518e-04
 Reference value :  1.70549e-04
 Reference value :  1.70750e-04
 Reference value :  1.70750e-04
 Reference value :  1.70750e-04
 Reference value :  1.70751e-04
 Reference value :  1.70752e-04
 Reference value :  1.70753e-04
 Reference value :  1.70754e-04
 Reference value :  1.70755e-04
 Reference value :  1.70756e-04
 Reference value :  1.70759e-04
 Reference value :  1.70770e-04
 Reference value :  1.70846e-04
 Reference value :  1.71000e-04
 Reference value :  1.71000e-04
 Reference value :  1.71000e-04
 Reference value :  1.71000e-04
 Reference value :  1.71000e-04
 Reference value :  1.71001e-04
 Reference value :  1.71002e-04
 Reference value :  1.71003e-04
 Reference value :  1.71003e-04
 Reference value :  1.71004e-04
 Reference value :  1.71005e-04
 Reference value :  1.71006e-04
 Reference value :  1.71009e-04
 Reference value :  1.71010e-04
 Reference value :  1.71013e-04
 Reference value :  1.71015e-04
 Reference value :  1.71017e-04
 Reference value :  1.71019e-04
 Reference value :  1.71024e-04
 Reference value :  1.71051e-04
 Reference value :  1.71250e-04
 Reference value :  1.71250e-04
 Reference value :  1.71250e-04
 Reference value :  1.71250e-04
 Reference value :  1.71251e-04
 Reference value :  1.71252e-04
 Reference value :  1.71253e-04
 Reference value :  1.71254e-04
 Reference value :  1.71255e-04
 Reference value :  1.71256e-04
 Reference value :  1.71263e-04
 Reference value :  1.71286e-04
 Reference value :  1.71470e-04
 Reference value :  1.71500e-04
 Reference value :  1.71500e-04
 Reference value :  1.71500e-04
 Reference value :  1.71500e-04
 Reference value :  1.71501e-04
 Reference value :  1.71502e-04
 Reference value :  1.71503e-04
 Reference value :  1.71503e-04
 Reference value :  1.71504e-04
 Reference value :  1.71506e-04
 Reference value :  1.71506e-04
 Reference value :  1.71508e-04
 Reference value :  1.71511e-04
 Reference value :  1.71526e-04
 Reference value :  1.71741e-04
 Reference value :  1.71750e-04
 Reference value :  1.71750e-04
 Reference value :  1.71750e-04
 Reference value :  1.71752e-04
 Reference value :  1.71753e-04
 Reference value :  1.71754e-04
 Reference value :  1.71755e-04
 Reference value :  1.71757e-04
 Reference value :  1.71764e-04
 Reference value :  1.71803e-04
 Reference value :  1.72000e-04
 Reference value :  1.72000e-04
 Reference value :  1.72000e-04
 Reference value :  1.72000e-04
 Reference value :  1.72001e-04
 Reference value :  1.72002e-04
 Reference value :  1.72003e-04
 Reference value :  1.72004e-04
 Reference value :  1.72005e-04
 Reference value :  1.72007e-04
 Reference value :  1.72010e-04
 Reference value :  1.72013e-04
 Reference value :  1.72016e-04
 Reference value :  1.72018e-04
 Reference value :  1.72020e-04
 Reference value :  1.72037e-04
 Reference value :  1.72127e-04
 Reference value :  1.72250e-04
 Reference value :  1.72250e-04
 Reference value :  1.72250e-04
 Reference value :  1.72250e-04
 Reference value :  1.72251e-04
 Reference value :  1.72252e-04
 Reference value :  1.72253e-04
 Reference value :  1.72254e-04
 Reference value :  1.72256e-04
 Reference value :  1.72260e-04
 Reference value :  1.72272e-04
 Reference value :  1.72365e-04
 Reference value :  1.72500e-04
 Reference value :  1.72500e-04
 Reference value :  1.72500e-04
 Reference value :  1.72500e-04
 Reference value :  1.72501e-04
 Reference value :  1.72502e-04
 Reference value :  1.72503e-04
 Reference value :  1.72503e-04
 Reference value :  1.72504e-04
 Reference value :  1.72506e-04
 Reference value :  1.72506e-04
 Reference value :  1.72508e-04
 Reference value :  1.72510e-04
 Reference value :  1.72514e-04
 Reference value :  1.72569e-04
 Reference value :  1.72750e-04
 Reference value :  1.72750e-04
 Reference value :  1.72750e-04
 Reference value :  1.72751e-04
 Reference value :  1.72752e-04
 Reference value :  1.72754e-04
 Reference value :  1.72755e-04
 Reference value :  1.72761e-04
 Reference value :  1.72847e-04
 Reference value :  1.73000e-04
 Reference value :  1.73000e-04
 Reference value :  1.73001e-04
 Reference value :  1.73002e-04
 Reference value :  1.73003e-04
 Reference value :  1.73005e-04
 Reference value :  1.73006e-04
 Reference value :  1.73010e-04
 Reference value :  1.73013e-04
 Reference value :  1.73016e-04
 Reference value :  1.73018e-04
 Reference value :  1.73022e-04
 Reference value :  1.73051e-04
 Reference value :  1.73145e-04
 Reference value :  1.73250e-04
 Reference value :  1.73250e-04
 Reference value :  1.73250e-04
 Reference value :  1.73251e-04
 Reference value :  1.73252e-04
 Reference value :  1.73254e-04
 Reference value :  1.73256e-04
 Reference value :  1.73263e-04
 Reference value :  1.73365e-04
 Reference value :  1.73500e-04
 Reference value :  1.73500e-04
 Reference value :  1.73501e-04
 Reference value :  1.73502e-04
 Reference value :  1.73503e-04
 Reference value :  1.73505e-04
 Reference value :  1.73506e-04
 Reference value :  1.73508e-04
 Reference value :  1.73511e-04
 Reference value :  1.73519e-04
 Reference value :  1.73627e-04
 Reference value :  1.73750e-04
 Reference value :  1.73750e-04
 Reference value :  1.73750e-04
 Reference value :  1.73752e-04
 Reference value :  1.73753e-04
 Reference value :  1.73754e-04
 Reference value :  1.73755e-04
 Reference value :  1.73757e-04
 Reference value :  1.73770e-04
 Reference value :  1.73848e-04
 Reference value :  1.74000e-04
 Reference value :  1.74000e-04
 Reference value :  1.74000e-04
 Reference value :  1.74001e-04
 Reference value :  1.74002e-04
 Reference value :  1.74003e-04
 Reference value :  1.74004e-04
 Reference value :  1.74005e-04
 Reference value :  1.74009e-04
 Reference value :  1.74012e-04
 Reference value :  1.74015e-04
 Reference value :  1.74016e-04
 Reference value :  1.74019e-04
 Reference value :  1.74024e-04
 Reference value :  1.74038e-04
 Reference value :  1.74054e-04
 Reference value :  1.74074e-04
 Reference value :  1.74123e-04
 Reference value :  1.74168e-04
 Reference value :  1.74186e-04
 Reference value :  1.74207e-04
 Reference value :  1.74229e-04
 Reference value :  1.74250e-04
 Reference value :  1.74250e-04
 Reference value :  1.74251e-04
 Reference value :  1.74252e-04
 Reference value :  1.74253e-04
 Reference value :  1.74254e-04
 Reference value :  1.74255e-04
 Reference value :  1.74260e-04
 Reference value :  1.74312e-04
 Reference value :  1.74500e-04
 Reference value :  1.74500e-04
 Reference value :  1.74500e-04
 Reference value :  1.74501e-04
 Reference value :  1.74501e-04
 Reference value :  1.74502e-04
 Reference value :  1.74503e-04
 Reference value :  1.74504e-04
 Reference value :  1.74506e-04
 Reference value :  1.74508e-04
 Reference value :  1.74511e-04
 Reference value :  1.74526e-04
 Reference value :  1.74742e-04
 Reference value :  1.74750e-04
 Reference value :  1.74750e-04
 Reference value :  1.74750e-04
 Reference value :  1.74750e-04
 Reference value :  1.74752e-04
 Reference value :  1.74753e-04
 Reference value :  1.74754e-04
 Reference value :  1.74755e-04
 Reference value :  1.74756e-04
 Reference value :  1.74761e-04
 Reference value :  1.74781e-04
 Reference value :  1.74936e-04
 Reference value :  1.75000e-04
 Reference value :  1.75000e-04
 Reference value :  1.75000e-04
 Reference value :  1.75001e-04
 Reference value :  1.75002e-04
 Reference value :  1.75003e-04
 Reference value :  1.75005e-04
 Reference value :  1.75006e-04
 Reference value :  1.75010e-04
 Reference value :  1.75012e-04
 Reference value :  1.75015e-04
 Reference value :  1.75016e-04
 Reference value :  1.75019e-04
 Reference value :  1.75024e-04
 Reference value :  1.75033e-04
 Reference value :  1.75037e-04
 Reference value :  1.75043e-04
 Reference value :  1.75051e-04
 Reference value :  1.75062e-04
 Reference value :  1.75083e-04
 Reference value :  1.75149e-04
 Reference value :  1.75250e-04
 Reference value :  1.75250e-04
 Reference value :  1.75250e-04
 Reference value :  1.75251e-04
 Reference value :  1.75252e-04
 Reference value :  1.75253e-04
 Reference value :  1.75254e-04
 Reference value :  1.75255e-04
 Reference value :  1.75258e-04
 Reference value :  1.75286e-04
 Reference value :  1.75500e-04
 Reference value :  1.75500e-04
 Reference value :  1.75500e-04
 Reference value :  1.75501e-04
 Reference value :  1.75502e-04
 Reference value :  1.75503e-04
 Reference value :  1.75504e-04
 Reference value :  1.75506e-04
 Reference value :  1.75507e-04
 Reference value :  1.75510e-04
 Reference value :  1.75526e-04
 Reference value :  1.75750e-04
 Reference value :  1.75750e-04
 Reference value :  1.75750e-04
 Reference value :  1.75752e-04
 Reference value :  1.75754e-04
 Reference value :  1.75755e-04
 Reference value :  1.75758e-04
 Reference value :  1.75765e-04
 Reference value :  1.75905e-04
 Reference value :  1.76000e-04
 Reference value :  1.76000e-04
 Reference value :  1.76000e-04
 Reference value :  1.76001e-04
 Reference value :  1.76001e-04
 Reference value :  1.76003e-04
 Reference value :  1.76004e-04
 Reference value :  1.76006e-04
 Reference value :  1.76008e-04
 Reference value :  1.76011e-04
 Reference value :  1.76012e-04
 Reference value :  1.76014e-04
 Reference value :  1.76016e-04
 Reference value :  1.76018e-04
 Reference value :  1.76028e-04
 Reference value :  1.76034e-04
 Reference value :  1.76040e-04
 Reference value :  1.76089e-04
 Reference value :  1.76250e-04
 Reference value :  1.76250e-04
 Reference value :  1.76251e-04
 Reference value :  1.76252e-04
 Reference value :  1.76253e-04
 Reference value :  1.76254e-04
 Reference value :  1.76255e-04
 Reference value :  1.76256e-04
 Reference value :  1.76272e-04
 Reference value :  1.76500e-04
 Reference value :  1.76500e-04
 Reference value :  1.76500e-04
 Reference value :  1.76500e-04
 Reference value :  1.76501e-04
 Reference value :  1.76502e-04
 Reference value :  1.76503e-04
 Reference value :  1.76505e-04
 Reference value :  1.76506e-04
 Reference value :  1.76508e-04
 Reference value :  1.76511e-04
 Reference value :  1.76526e-04
 Reference value :  1.76750e-04
 Reference value :  1.76750e-04
 Reference value :  1.76750e-04
 Reference value :  1.76752e-04
 Reference value :  1.76753e-04
 Reference value :  1.76754e-04
 Reference value :  1.76756e-04
 Reference value :  1.76770e-04
 Reference value :  1.77000e-04
 Reference value :  1.77000e-04
 Reference value :  1.77000e-04
 Reference value :  1.77001e-04
 Reference value :  1.77002e-04
 Reference value :  1.77003e-04
 Reference value :  1.77004e-04
 Reference value :  1.77005e-04
 Reference value :  1.77009e-04
 Reference value :  1.77012e-04
 Reference value :  1.77015e-04
 Reference value :  1.77016e-04
 Reference value :  1.77020e-04
 Reference value :  1.77023e-04
 Reference value :  1.77033e-04
 Reference value :  1.77039e-04
 Reference value :  1.77050e-04
 Reference value :  1.77071e-04
 Reference value :  1.77120e-04
 Reference value :  1.77250e-04
 Reference value :  1.77250e-04
 Reference value :  1.77250e-04
 Reference value :  1.77251e-04
 Reference value :  1.77252e-04
 Reference value :  1.77253e-04
 Reference value :  1.77254e-04
 Reference value :  1.77255e-04
 Reference value :  1.77258e-04
 Reference value :  1.77273e-04
 Reference value :  1.77500e-04
 Reference value :  1.77500e-04
 Reference value :  1.77500e-04
 Reference value :  1.77500e-04
 Reference value :  1.77501e-04
 Reference value :  1.77502e-04
 Reference value :  1.77503e-04
 Reference value :  1.77503e-04
 Reference value :  1.77504e-04
 Reference value :  1.77506e-04
 Reference value :  1.77506e-04
 Reference value :  1.77508e-04
 Reference value :  1.77510e-04
 Reference value :  1.77515e-04
 Reference value :  1.77626e-04
 Reference value :  1.77750e-04
 Reference value :  1.77750e-04
 Reference value :  1.77750e-04
 Reference value :  1.77751e-04
 Reference value :  1.77752e-04
 Reference value :  1.77752e-04
 Reference value :  1.77754e-04
 Reference value :  1.77755e-04
 Reference value :  1.77758e-04
 Reference value :  1.77762e-04
 Reference value :  1.77774e-04
 Reference value :  1.77902e-04
 Reference value :  1.78000e-04
 Reference value :  1.78000e-04
 Reference value :  1.78001e-04
 Reference value :  1.78001e-04
 Reference value :  1.78002e-04
 Reference value :  1.78003e-04
 Reference value :  1.78004e-04
 Reference value :  1.78006e-04
 Reference value :  1.78008e-04
 Reference value :  1.78009e-04
 Reference value :  1.78011e-04
 Reference value :  1.78016e-04
 Reference value :  1.78025e-04
 Reference value :  1.78033e-04
 Reference value :  1.78036e-04
 Reference value :  1.78044e-04
 Reference value :  1.78057e-04
 Reference value :  1.78093e-04
 Reference value :  1.78250e-04
 Reference value :  1.78250e-04
 Reference value :  1.78250e-04
 Reference value :  1.78251e-04
 Reference value :  1.78252e-04
 Reference value :  1.78253e-04
 Reference value :  1.78255e-04
 Reference value :  1.78258e-04
 Reference value :  1.78267e-04
 Reference value :  1.78379e-04
No. of Data Rows : 25651
ngspice-44 done
