
Note: Compatibility modes selected: hs a


Circuit: ** sch_path: /home/issa/cace/sar-adc-using-sky130-pdk/runs/run_2025-09-01_21-22-14/parameters/sndr/run_0/sndr_enob_fom.sch

option SCALE: Scale is set to 1e-06 for instance and model parameters
option SCALE: Scale is set to 1e-06 for instance and model parameters
option SCALE: Scale is set to 1e-06 for instance and model parameters
option SCALE: Scale is set to 1e-06 for instance and model parameters
Doing analysis at TEMP = 27.000000 and TNOM = 27.000000

Using KLU as Direct Linear Solver
Operating point simulation skipped by 'uic',
  now using transient initial conditions.
 Reference value :  1.00000e-12
 Reference value :  1.02386e-12
 Reference value :  1.07158e-12
 Reference value :  1.14210e-12
 Reference value :  1.22023e-12
 Reference value :  1.35921e-12
 Reference value :  1.57500e-12
 Reference value :  1.90701e-12
 Reference value :  2.54078e-12
 Reference value :  3.47521e-12
 Reference value :  4.89858e-12
 Reference value :  6.43067e-12
 Reference value :  8.78359e-12
 Reference value :  1.27800e-11
 Reference value :  1.81399e-11
 Reference value :  2.51068e-11
 Reference value :  3.40036e-11
 Reference value :  4.40514e-11
 Reference value :  5.96108e-11
 Reference value :  7.83609e-11
 Reference value :  1.00000e-10
 Reference value :  1.00419e-10
 Reference value :  1.01256e-10
 Reference value :  1.02930e-10
 Reference value :  1.06261e-10
 Reference value :  1.12923e-10
 Reference value :  1.26246e-10
 Reference value :  1.52893e-10
 Reference value :  1.90346e-10
 Reference value :  2.38031e-10
 Reference value :  3.06255e-10
 Reference value :  4.29176e-10
 Reference value :  6.60710e-10
 Reference value :  9.46329e-10
 Reference value :  1.37855e-09
 Reference value :  1.87148e-09
 Reference value :  2.63737e-09
 Reference value :  3.50251e-09
 Reference value :  4.24214e-09
 Reference value :  5.08842e-09
 Reference value :  5.89858e-09
 Reference value :  6.76229e-09
 Reference value :  7.68734e-09
 Reference value :  8.65557e-09
 Reference value :  9.60879e-09
 Reference value :  1.03406e-08
 Reference value :  1.11526e-08
 Reference value :  1.20424e-08
 Reference value :  1.30047e-08
 Reference value :  1.41798e-08
 Reference value :  1.54266e-08
 Reference value :  1.67964e-08
 Reference value :  1.82469e-08
 Reference value :  1.95552e-08
 Reference value :  2.10068e-08
 Reference value :  2.28114e-08
 Reference value :  2.41344e-08
 Reference value :  2.57689e-08
 Reference value :  2.76544e-08
 Reference value :  2.99954e-08
 Reference value :  3.25745e-08
 Reference value :  3.52504e-08
 Reference value :  4.06023e-08
 Reference value :  4.75725e-08
 Reference value :  6.15129e-08
 Reference value :  8.93937e-08
 Reference value :  1.23313e-07
 Reference value :  1.82415e-07
 Reference value :  2.50100e-07
 Reference value :  2.50110e-07
 Reference value :  2.50130e-07
 Reference value :  2.50170e-07
 Reference value :  2.50200e-07
 Reference value :  2.50201e-07
 Reference value :  2.50202e-07
 Reference value :  2.50204e-07
 Reference value :  2.50208e-07
 Reference value :  2.50216e-07
 Reference value :  2.50232e-07
 Reference value :  2.50265e-07
 Reference value :  2.50331e-07
 Reference value :  2.50412e-07
 Reference value :  2.50575e-07
 Reference value :  2.50741e-07
 Reference value :  2.51073e-07
 Reference value :  2.51459e-07
 Reference value :  2.52119e-07
 Reference value :  2.52784e-07
 Reference value :  2.53506e-07
 Reference value :  2.54463e-07
 Reference value :  2.55477e-07
 Reference value :  2.56511e-07
 Reference value :  2.57705e-07
 Reference value :  2.58900e-07
 Reference value :  2.60081e-07
 Reference value :  2.61405e-07
 Reference value :  2.63104e-07
 Reference value :  2.65830e-07
 Reference value :  2.69919e-07
 Reference value :  2.77674e-07
 Reference value :  2.90943e-07
 Reference value :  3.15635e-07
 Reference value :  3.60205e-07
 Reference value :  4.40910e-07
 Reference value :  5.00000e-07
 Reference value :  5.00010e-07
 Reference value :  5.00030e-07
 Reference value :  5.00070e-07
 Reference value :  5.00100e-07
 Reference value :  5.00101e-07
 Reference value :  5.00102e-07
 Reference value :  5.00104e-07
 Reference value :  5.00108e-07
 Reference value :  5.00116e-07
 Reference value :  5.00133e-07
 Reference value :  5.00166e-07
 Reference value :  5.00232e-07
 Reference value :  5.00364e-07
 Reference value :  5.00562e-07
 Reference value :  5.00958e-07
 Reference value :  5.01468e-07
 Reference value :  5.02004e-07
 Reference value :  5.02765e-07
 Reference value :  5.03571e-07
 Reference value :  5.04319e-07
 Reference value :  5.05131e-07
 Reference value :  5.06130e-07
 Reference value :  5.07181e-07
 Reference value :  5.08420e-07
 Reference value :  5.09735e-07
 Reference value :  5.11696e-07
 Reference value :  5.13521e-07
 Reference value :  5.15544e-07
 Reference value :  5.17484e-07
 Reference value :  5.19713e-07
 Reference value :  5.24171e-07
 Reference value :  5.27127e-07
 Reference value :  5.30599e-07
 Reference value :  5.34415e-07
 Reference value :  5.38455e-07
 Reference value :  5.44683e-07
 Reference value :  5.50634e-07
 Reference value :  5.60342e-07
 Reference value :  5.74367e-07
 Reference value :  6.02418e-07
 Reference value :  6.58520e-07
 Reference value :  7.50100e-07
 Reference value :  7.50110e-07
 Reference value :  7.50130e-07
 Reference value :  7.50170e-07
 Reference value :  7.50200e-07
 Reference value :  7.50201e-07
 Reference value :  7.50202e-07
 Reference value :  7.50204e-07
 Reference value :  7.50208e-07
 Reference value :  7.50216e-07
 Reference value :  7.50233e-07
 Reference value :  7.50266e-07
 Reference value :  7.50333e-07
 Reference value :  7.50467e-07
 Reference value :  7.50644e-07
 Reference value :  7.50914e-07
 Reference value :  7.51453e-07
 Reference value :  7.52099e-07
 Reference value :  7.52800e-07
 Reference value :  7.53530e-07
 Reference value :  7.54427e-07
 Reference value :  7.55525e-07
 Reference value :  7.56676e-07
 Reference value :  7.57701e-07
 Reference value :  7.58795e-07
 Reference value :  7.59790e-07
 Reference value :  7.60838e-07
 Reference value :  7.62265e-07
 Reference value :  7.63777e-07
 Reference value :  7.66801e-07
 Reference value :  7.71905e-07
 Reference value :  7.79805e-07
 Reference value :  7.95121e-07
 Reference value :  8.19590e-07
 Reference value :  8.63778e-07
 Reference value :  9.43784e-07
 Reference value :  1.00000e-06
 Reference value :  1.00001e-06
 Reference value :  1.00003e-06
 Reference value :  1.00007e-06
 Reference value :  1.00010e-06
 Reference value :  1.00010e-06
 Reference value :  1.00010e-06
 Reference value :  1.00010e-06
 Reference value :  1.00011e-06
 Reference value :  1.00012e-06
 Reference value :  1.00013e-06
 Reference value :  1.00017e-06
 Reference value :  1.00023e-06
 Reference value :  1.00036e-06
 Reference value :  1.00056e-06
 Reference value :  1.00096e-06
 Reference value :  1.00147e-06
 Reference value :  1.00201e-06
 Reference value :  1.00276e-06
 Reference value :  1.00346e-06
 Reference value :  1.00420e-06
 Reference value :  1.00499e-06
 Reference value :  1.00587e-06
 Reference value :  1.00691e-06
 Reference value :  1.00774e-06
 Reference value :  1.00867e-06
 Reference value :  1.00966e-06
 Reference value :  1.01084e-06
 Reference value :  1.01249e-06
 Reference value :  1.01493e-06
 Reference value :  1.01837e-06
 Reference value :  1.02257e-06
 Reference value :  1.02578e-06
 Reference value :  1.02864e-06
 Reference value :  1.03084e-06
 Reference value :  1.03288e-06
 Reference value :  1.03524e-06
 Reference value :  1.03751e-06
 Reference value :  1.04006e-06
 Reference value :  1.04371e-06
 Reference value :  1.04820e-06
 Reference value :  1.05481e-06
 Reference value :  1.06470e-06
 Reference value :  1.07948e-06
 Reference value :  1.10282e-06
 Reference value :  1.13825e-06
 Reference value :  1.18655e-06
 Reference value :  1.23696e-06
 Reference value :  1.25010e-06
 Reference value :  1.25011e-06
 Reference value :  1.25013e-06
 Reference value :  1.25017e-06
 Reference value :  1.25020e-06
 Reference value :  1.25020e-06
 Reference value :  1.25020e-06
 Reference value :  1.25020e-06
 Reference value :  1.25021e-06
 Reference value :  1.25022e-06
 Reference value :  1.25023e-06
 Reference value :  1.25027e-06
 Reference value :  1.25033e-06
 Reference value :  1.25047e-06
 Reference value :  1.25064e-06
 Reference value :  1.25091e-06
 Reference value :  1.25145e-06
 Reference value :  1.25210e-06
 Reference value :  1.25288e-06
 Reference value :  1.25358e-06
 Reference value :  1.25455e-06
 Reference value :  1.25561e-06
 Reference value :  1.25650e-06
 Reference value :  1.25755e-06
 Reference value :  1.25867e-06
 Reference value :  1.25982e-06
 Reference value :  1.26127e-06
 Reference value :  1.26391e-06
 Reference value :  1.26728e-06
 Reference value :  1.27241e-06
 Reference value :  1.28267e-06
 Reference value :  1.29886e-06
 Reference value :  1.33095e-06
 Reference value :  1.39512e-06
 Reference value :  1.50000e-06
 Reference value :  1.50001e-06
 Reference value :  1.50003e-06
 Reference value :  1.50007e-06
 Reference value :  1.50010e-06
 Reference value :  1.50010e-06
 Reference value :  1.50010e-06
 Reference value :  1.50010e-06
 Reference value :  1.50011e-06
 Reference value :  1.50012e-06
 Reference value :  1.50013e-06
 Reference value :  1.50017e-06
 Reference value :  1.50023e-06
 Reference value :  1.50036e-06
 Reference value :  1.50056e-06
 Reference value :  1.50095e-06
 Reference value :  1.50146e-06
 Reference value :  1.50200e-06
 Reference value :  1.50275e-06
 Reference value :  1.50344e-06
 Reference value :  1.50417e-06
 Reference value :  1.50501e-06
 Reference value :  1.50593e-06
 Reference value :  1.50702e-06
 Reference value :  1.50802e-06
 Reference value :  1.50959e-06
 Reference value :  1.51123e-06
 Reference value :  1.51320e-06
 Reference value :  1.51481e-06
 Reference value :  1.51652e-06
 Reference value :  1.51884e-06
 Reference value :  1.52121e-06
 Reference value :  1.52516e-06
 Reference value :  1.53040e-06
 Reference value :  1.53851e-06
 Reference value :  1.55146e-06
 Reference value :  1.57419e-06
 Reference value :  1.61698e-06
 Reference value :  1.69215e-06
 Reference value :  1.75010e-06
 Reference value :  1.75011e-06
 Reference value :  1.75013e-06
 Reference value :  1.75017e-06
 Reference value :  1.75020e-06
 Reference value :  1.75020e-06
 Reference value :  1.75020e-06
 Reference value :  1.75020e-06
 Reference value :  1.75021e-06
 Reference value :  1.75022e-06
 Reference value :  1.75023e-06
 Reference value :  1.75027e-06
 Reference value :  1.75033e-06
 Reference value :  1.75047e-06
 Reference value :  1.75064e-06
 Reference value :  1.75091e-06
 Reference value :  1.75145e-06
 Reference value :  1.75210e-06
 Reference value :  1.75288e-06
 Reference value :  1.75358e-06
 Reference value :  1.75454e-06
 Reference value :  1.75561e-06
 Reference value :  1.75653e-06
 Reference value :  1.75762e-06
 Reference value :  1.75853e-06
 Reference value :  1.75951e-06
 Reference value :  1.76064e-06
 Reference value :  1.76189e-06
 Reference value :  1.76338e-06
 Reference value :  1.76497e-06
 Reference value :  1.76741e-06
 Reference value :  1.77003e-06
 Reference value :  1.77439e-06
 Reference value :  1.78310e-06
 Reference value :  1.79620e-06
 Reference value :  1.82183e-06
 Reference value :  1.86514e-06
 Reference value :  1.94186e-06
 Reference value :  2.00000e-06
 Reference value :  2.00001e-06
 Reference value :  2.00003e-06
 Reference value :  2.00007e-06
 Reference value :  2.00010e-06
 Reference value :  2.00010e-06
 Reference value :  2.00010e-06
 Reference value :  2.00010e-06
 Reference value :  2.00011e-06
 Reference value :  2.00012e-06
 Reference value :  2.00013e-06
 Reference value :  2.00017e-06
 Reference value :  2.00023e-06
 Reference value :  2.00036e-06
 Reference value :  2.00056e-06
 Reference value :  2.00095e-06
 Reference value :  2.00146e-06
 Reference value :  2.00200e-06
 Reference value :  2.00275e-06
 Reference value :  2.00345e-06
 Reference value :  2.00418e-06
 Reference value :  2.00498e-06
 Reference value :  2.00586e-06
 Reference value :  2.00661e-06
 Reference value :  2.00746e-06
 Reference value :  2.00819e-06
 Reference value :  2.00904e-06
 Reference value :  2.01011e-06
 Reference value :  2.01122e-06
 Reference value :  2.01323e-06
 Reference value :  2.01537e-06
 Reference value :  2.01761e-06
 Reference value :  2.01983e-06
 Reference value :  2.02193e-06
 Reference value :  2.02420e-06
 Reference value :  2.02601e-06
 Reference value :  2.02744e-06
 Reference value :  2.02897e-06
 Reference value :  2.03070e-06
 Reference value :  2.03258e-06
 Reference value :  2.03463e-06
 Reference value :  2.03764e-06
 Reference value :  2.04132e-06
 Reference value :  2.04870e-06
 Reference value :  2.05655e-06
 Reference value :  2.07225e-06
 Reference value :  2.08832e-06
 Reference value :  2.10587e-06
 Reference value :  2.12250e-06
 Reference value :  2.13127e-06
 Reference value :  2.13980e-06
 Reference value :  2.14900e-06
 Reference value :  2.16133e-06
 Reference value :  2.18203e-06
 Reference value :  2.20765e-06
 Reference value :  2.24925e-06
 Reference value :  2.25010e-06
 Reference value :  2.25011e-06
 Reference value :  2.25013e-06
 Reference value :  2.25017e-06
 Reference value :  2.25020e-06
 Reference value :  2.25020e-06
 Reference value :  2.25020e-06
 Reference value :  2.25020e-06
 Reference value :  2.25021e-06
 Reference value :  2.25022e-06
 Reference value :  2.25023e-06
 Reference value :  2.25027e-06
 Reference value :  2.25033e-06
 Reference value :  2.25047e-06
 Reference value :  2.25064e-06
 Reference value :  2.25091e-06
 Reference value :  2.25145e-06
 Reference value :  2.25210e-06
 Reference value :  2.25288e-06
 Reference value :  2.25358e-06
 Reference value :  2.25454e-06
 Reference value :  2.25561e-06
 Reference value :  2.25661e-06
 Reference value :  2.25770e-06
 Reference value :  2.25880e-06
 Reference value :  2.26038e-06
 Reference value :  2.26246e-06
 Reference value :  2.26502e-06
 Reference value :  2.26891e-06
 Reference value :  2.27554e-06
 Reference value :  2.28651e-06
 Reference value :  2.30473e-06
 Reference value :  2.34118e-06
 Reference value :  2.40152e-06
 Reference value :  2.46702e-06
 Reference value :  2.50000e-06
 Reference value :  2.50001e-06
 Reference value :  2.50003e-06
 Reference value :  2.50007e-06
 Reference value :  2.50010e-06
 Reference value :  2.50010e-06
 Reference value :  2.50010e-06
 Reference value :  2.50010e-06
 Reference value :  2.50011e-06
 Reference value :  2.50012e-06
 Reference value :  2.50013e-06
 Reference value :  2.50017e-06
 Reference value :  2.50023e-06
 Reference value :  2.50036e-06
 Reference value :  2.50055e-06
 Reference value :  2.50091e-06
 Reference value :  2.50141e-06
 Reference value :  2.50194e-06
 Reference value :  2.50269e-06
 Reference value :  2.50338e-06
 Reference value :  2.50409e-06
 Reference value :  2.50487e-06
 Reference value :  2.50575e-06
 Reference value :  2.50669e-06
 Reference value :  2.50793e-06
 Reference value :  2.50945e-06
 Reference value :  2.51166e-06
 Reference value :  2.51317e-06
 Reference value :  2.51482e-06
 Reference value :  2.51648e-06
 Reference value :  2.51877e-06
 Reference value :  2.52127e-06
 Reference value :  2.52549e-06
 Reference value :  2.53148e-06
 Reference value :  2.54111e-06
 Reference value :  2.55985e-06
 Reference value :  2.58938e-06
 Reference value :  2.64378e-06
 Reference value :  2.73719e-06
 Reference value :  2.75010e-06
 Reference value :  2.75011e-06
 Reference value :  2.75013e-06
 Reference value :  2.75017e-06
 Reference value :  2.75020e-06
 Reference value :  2.75020e-06
 Reference value :  2.75020e-06
 Reference value :  2.75020e-06
 Reference value :  2.75021e-06
 Reference value :  2.75022e-06
 Reference value :  2.75023e-06
 Reference value :  2.75027e-06
 Reference value :  2.75033e-06
 Reference value :  2.75047e-06
 Reference value :  2.75064e-06
 Reference value :  2.75091e-06
 Reference value :  2.75145e-06
 Reference value :  2.75210e-06
 Reference value :  2.75287e-06
 Reference value :  2.75358e-06
 Reference value :  2.75455e-06
 Reference value :  2.75561e-06
 Reference value :  2.75658e-06
 Reference value :  2.75748e-06
 Reference value :  2.75844e-06
 Reference value :  2.75955e-06
 Reference value :  2.76080e-06
 Reference value :  2.76330e-06
 Reference value :  2.76642e-06
 Reference value :  2.77102e-06
 Reference value :  2.77933e-06
 Reference value :  2.79442e-06
 Reference value :  2.81964e-06
 Reference value :  2.87009e-06
 Reference value :  2.97098e-06
 Reference value :  3.00000e-06
 Reference value :  3.00001e-06
 Reference value :  3.00003e-06
 Reference value :  3.00007e-06
 Reference value :  3.00010e-06
 Reference value :  3.00010e-06
 Reference value :  3.00010e-06
 Reference value :  3.00010e-06
 Reference value :  3.00011e-06
 Reference value :  3.00012e-06
 Reference value :  3.00013e-06
 Reference value :  3.00017e-06
 Reference value :  3.00023e-06
 Reference value :  3.00036e-06
 Reference value :  3.00055e-06
 Reference value :  3.00091e-06
 Reference value :  3.00141e-06
 Reference value :  3.00194e-06
 Reference value :  3.00269e-06
 Reference value :  3.00338e-06
 Reference value :  3.00409e-06
 Reference value :  3.00487e-06
 Reference value :  3.00574e-06
 Reference value :  3.00666e-06
 Reference value :  3.00762e-06
 Reference value :  3.00843e-06
 Reference value :  3.00934e-06
 Reference value :  3.01049e-06
 Reference value :  3.01172e-06
 Reference value :  3.01403e-06
 Reference value :  3.01619e-06
 Reference value :  3.01901e-06
 Reference value :  3.02130e-06
 Reference value :  3.02337e-06
 Reference value :  3.02483e-06
 Reference value :  3.02636e-06
 Reference value :  3.02794e-06
 Reference value :  3.02955e-06
 Reference value :  3.03140e-06
 Reference value :  3.03465e-06
 Reference value :  3.03759e-06
 Reference value :  3.04346e-06
 Reference value :  3.05248e-06
 Reference value :  3.06638e-06
 Reference value :  3.08078e-06
 Reference value :  3.09449e-06
 Reference value :  3.10849e-06
 Reference value :  3.11833e-06
 Reference value :  3.12775e-06
 Reference value :  3.13671e-06
 Reference value :  3.14409e-06
 Reference value :  3.15241e-06
 Reference value :  3.16907e-06
 Reference value :  3.18600e-06
 Reference value :  3.21540e-06
 Reference value :  3.25010e-06
 Reference value :  3.25011e-06
 Reference value :  3.25013e-06
 Reference value :  3.25017e-06
 Reference value :  3.25020e-06
 Reference value :  3.25020e-06
 Reference value :  3.25020e-06
 Reference value :  3.25020e-06
 Reference value :  3.25021e-06
 Reference value :  3.25022e-06
 Reference value :  3.25023e-06
 Reference value :  3.25027e-06
 Reference value :  3.25033e-06
 Reference value :  3.25047e-06
 Reference value :  3.25064e-06
 Reference value :  3.25091e-06
 Reference value :  3.25145e-06
 Reference value :  3.25210e-06
 Reference value :  3.25287e-06
 Reference value :  3.25358e-06
 Reference value :  3.25455e-06
 Reference value :  3.25561e-06
 Reference value :  3.25657e-06
 Reference value :  3.25758e-06
 Reference value :  3.25863e-06
 Reference value :  3.26037e-06
 Reference value :  3.26198e-06
 Reference value :  3.26480e-06
 Reference value :  3.26827e-06
 Reference value :  3.27519e-06
 Reference value :  3.28624e-06
 Reference value :  3.30463e-06
 Reference value :  3.34141e-06
 Reference value :  3.38037e-06
 Reference value :  3.43403e-06
 Reference value :  3.48251e-06
 Reference value :  3.50000e-06
 Reference value :  3.50001e-06
 Reference value :  3.50003e-06
 Reference value :  3.50007e-06
 Reference value :  3.50010e-06
 Reference value :  3.50010e-06
 Reference value :  3.50010e-06
 Reference value :  3.50010e-06
 Reference value :  3.50011e-06
 Reference value :  3.50012e-06
 Reference value :  3.50013e-06
 Reference value :  3.50017e-06
 Reference value :  3.50023e-06
 Reference value :  3.50036e-06
 Reference value :  3.50055e-06
 Reference value :  3.50091e-06
 Reference value :  3.50141e-06
 Reference value :  3.50194e-06
 Reference value :  3.50269e-06
 Reference value :  3.50337e-06
 Reference value :  3.50409e-06
 Reference value :  3.50490e-06
 Reference value :  3.50580e-06
 Reference value :  3.50679e-06
 Reference value :  3.50790e-06
 Reference value :  3.50964e-06
 Reference value :  3.51112e-06
 Reference value :  3.51278e-06
 Reference value :  3.51450e-06
 Reference value :  3.51631e-06
 Reference value :  3.51810e-06
 Reference value :  3.52063e-06
 Reference value :  3.52357e-06
 Reference value :  3.52856e-06
 Reference value :  3.53625e-06
 Reference value :  3.54926e-06
 Reference value :  3.57252e-06
 Reference value :  3.61255e-06
 Reference value :  3.68551e-06
 Reference value :  3.75010e-06
 Reference value :  3.75011e-06
 Reference value :  3.75013e-06
 Reference value :  3.75017e-06
 Reference value :  3.75020e-06
 Reference value :  3.75020e-06
 Reference value :  3.75020e-06
 Reference value :  3.75020e-06
 Reference value :  3.75021e-06
 Reference value :  3.75022e-06
 Reference value :  3.75023e-06
 Reference value :  3.75027e-06
 Reference value :  3.75033e-06
 Reference value :  3.75047e-06
 Reference value :  3.75064e-06
 Reference value :  3.75091e-06
 Reference value :  3.75145e-06
 Reference value :  3.75210e-06
 Reference value :  3.75288e-06
 Reference value :  3.75358e-06
 Reference value :  3.75454e-06
 Reference value :  3.75561e-06
 Reference value :  3.75651e-06
 Reference value :  3.75749e-06
 Reference value :  3.75842e-06
 Reference value :  3.75943e-06
 Reference value :  3.76061e-06
 Reference value :  3.76297e-06
 Reference value :  3.76608e-06
 Reference value :  3.77057e-06
 Reference value :  3.77843e-06
 Reference value :  3.79413e-06
 Reference value :  3.82408e-06
 Reference value :  3.88399e-06
 Reference value :  4.00000e-06
 Reference value :  4.00001e-06
 Reference value :  4.00003e-06
 Reference value :  4.00007e-06
 Reference value :  4.00010e-06
 Reference value :  4.00010e-06
 Reference value :  4.00010e-06
 Reference value :  4.00010e-06
 Reference value :  4.00011e-06
 Reference value :  4.00012e-06
 Reference value :  4.00013e-06
 Reference value :  4.00017e-06
 Reference value :  4.00023e-06
 Reference value :  4.00036e-06
 Reference value :  4.00055e-06
 Reference value :  4.00091e-06
 Reference value :  4.00141e-06
 Reference value :  4.00194e-06
 Reference value :  4.00269e-06
 Reference value :  4.00337e-06
 Reference value :  4.00409e-06
 Reference value :  4.00488e-06
 Reference value :  4.00575e-06
 Reference value :  4.00657e-06
 Reference value :  4.00743e-06
 Reference value :  4.00840e-06
 Reference value :  4.00934e-06
 Reference value :  4.01035e-06
 Reference value :  4.01180e-06
 Reference value :  4.01328e-06
 Reference value :  4.01575e-06
 Reference value :  4.01844e-06
 Reference value :  4.02086e-06
 Reference value :  4.02344e-06
 Reference value :  4.02537e-06
 Reference value :  4.02720e-06
 Reference value :  4.02884e-06
 Reference value :  4.03061e-06
 Reference value :  4.03272e-06
 Reference value :  4.03534e-06
 Reference value :  4.03851e-06
 Reference value :  4.04364e-06
 Reference value :  4.04775e-06
 Reference value :  4.05259e-06
 Reference value :  4.05781e-06
 Reference value :  4.06185e-06
 Reference value :  4.06557e-06
 Reference value :  4.06946e-06
 Reference value :  4.07434e-06
 Reference value :  4.08168e-06
 Reference value :  4.08871e-06
 Reference value :  4.09514e-06
 Reference value :  4.10343e-06
 Reference value :  4.11416e-06
 Reference value :  4.13382e-06
 Reference value :  4.16542e-06
 Reference value :  4.22109e-06
 Reference value :  4.25010e-06
 Reference value :  4.25011e-06
 Reference value :  4.25013e-06
 Reference value :  4.25017e-06
 Reference value :  4.25020e-06
 Reference value :  4.25020e-06
 Reference value :  4.25020e-06
 Reference value :  4.25020e-06
 Reference value :  4.25021e-06
 Reference value :  4.25022e-06
 Reference value :  4.25023e-06
 Reference value :  4.25027e-06
 Reference value :  4.25033e-06
 Reference value :  4.25042e-06
 Reference value :  4.25058e-06
 Reference value :  4.25077e-06
 Reference value :  4.25109e-06
 Reference value :  4.25172e-06
 Reference value :  4.25234e-06
 Reference value :  4.25304e-06
 Reference value :  4.25378e-06
 Reference value :  4.25472e-06
 Reference value :  4.25551e-06
 Reference value :  4.25641e-06
 Reference value :  4.25730e-06
 Reference value :  4.25825e-06
 Reference value :  4.25981e-06
 Reference value :  4.26136e-06
 Reference value :  4.26399e-06
 Reference value :  4.26729e-06
 Reference value :  4.27246e-06
 Reference value :  4.28280e-06
 Reference value :  4.30348e-06
 Reference value :  4.34485e-06
 Reference value :  4.42758e-06
 Reference value :  4.50000e-06
 Reference value :  4.50001e-06
 Reference value :  4.50003e-06
 Reference value :  4.50007e-06
 Reference value :  4.50010e-06
 Reference value :  4.50010e-06
 Reference value :  4.50010e-06
 Reference value :  4.50010e-06
 Reference value :  4.50011e-06
 Reference value :  4.50012e-06
 Reference value :  4.50013e-06
 Reference value :  4.50017e-06
 Reference value :  4.50023e-06
 Reference value :  4.50036e-06
 Reference value :  4.50063e-06
 Reference value :  4.50110e-06
 Reference value :  4.50176e-06
 Reference value :  4.50247e-06
 Reference value :  4.50308e-06
 Reference value :  4.50385e-06
 Reference value :  4.50481e-06
 Reference value :  4.50576e-06
 Reference value :  4.50671e-06
 Reference value :  4.50793e-06
 Reference value :  4.50935e-06
 Reference value :  4.51105e-06
 Reference value :  4.51238e-06
 Reference value :  4.51383e-06
 Reference value :  4.51526e-06
 Reference value :  4.51697e-06
 Reference value :  4.51877e-06
 Reference value :  4.52206e-06
 Reference value :  4.52684e-06
 Reference value :  4.53575e-06
 Reference value :  4.55256e-06
 Reference value :  4.58210e-06
 Reference value :  4.64117e-06
 Reference value :  4.75010e-06
 Reference value :  4.75011e-06
 Reference value :  4.75013e-06
 Reference value :  4.75017e-06
 Reference value :  4.75020e-06
 Reference value :  4.75020e-06
 Reference value :  4.75020e-06
 Reference value :  4.75020e-06
 Reference value :  4.75021e-06
 Reference value :  4.75022e-06
 Reference value :  4.75023e-06
 Reference value :  4.75027e-06
 Reference value :  4.75033e-06
 Reference value :  4.75042e-06
 Reference value :  4.75058e-06
 Reference value :  4.75077e-06
 Reference value :  4.75108e-06
 Reference value :  4.75171e-06
 Reference value :  4.75233e-06
 Reference value :  4.75303e-06
 Reference value :  4.75377e-06
 Reference value :  4.75471e-06
 Reference value :  4.75554e-06
 Reference value :  4.75647e-06
 Reference value :  4.75729e-06
 Reference value :  4.75818e-06
 Reference value :  4.75921e-06
 Reference value :  4.76034e-06
 Reference value :  4.76176e-06
 Reference value :  4.76323e-06
 Reference value :  4.76561e-06
 Reference value :  4.76813e-06
 Reference value :  4.77190e-06
 Reference value :  4.77708e-06
 Reference value :  4.78744e-06
 Reference value :  4.80817e-06
 Reference value :  4.84963e-06
 Reference value :  4.93254e-06
 Reference value :  5.00000e-06
 Reference value :  5.00001e-06
 Reference value :  5.00003e-06
 Reference value :  5.00007e-06
 Reference value :  5.00010e-06
 Reference value :  5.00010e-06
 Reference value :  5.00010e-06
 Reference value :  5.00010e-06
 Reference value :  5.00011e-06
 Reference value :  5.00012e-06
 Reference value :  5.00013e-06
 Reference value :  5.00017e-06
 Reference value :  5.00023e-06
 Reference value :  5.00036e-06
 Reference value :  5.00063e-06
 Reference value :  5.00109e-06
 Reference value :  5.00175e-06
 Reference value :  5.00247e-06
 Reference value :  5.00309e-06
 Reference value :  5.00385e-06
 Reference value :  5.00471e-06
 Reference value :  5.00560e-06
 Reference value :  5.00636e-06
 Reference value :  5.00717e-06
 Reference value :  5.00788e-06
 Reference value :  5.00868e-06
 Reference value :  5.00965e-06
 Reference value :  5.01074e-06
 Reference value :  5.01293e-06
 Reference value :  5.01509e-06
 Reference value :  5.01736e-06
 Reference value :  5.01948e-06
 Reference value :  5.02163e-06
 Reference value :  5.02397e-06
 Reference value :  5.02621e-06
 Reference value :  5.02791e-06
 Reference value :  5.02951e-06
 Reference value :  5.03109e-06
 Reference value :  5.03275e-06
 Reference value :  5.03465e-06
 Reference value :  5.03791e-06
 Reference value :  5.04089e-06
 Reference value :  5.04592e-06
 Reference value :  5.05052e-06
 Reference value :  5.05625e-06
 Reference value :  5.06176e-06
 Reference value :  5.06891e-06
 Reference value :  5.07410e-06
 Reference value :  5.07975e-06
 Reference value :  5.08637e-06
 Reference value :  5.09685e-06
 Reference value :  5.10948e-06
 Reference value :  5.11957e-06
 Reference value :  5.13293e-06
 Reference value :  5.14390e-06
 Reference value :  5.15514e-06
 Reference value :  5.16623e-06
 Reference value :  5.17751e-06
 Reference value :  5.18878e-06
 Reference value :  5.20155e-06
 Reference value :  5.22207e-06
 Reference value :  5.24888e-06
 Reference value :  5.25010e-06
 Reference value :  5.25011e-06
 Reference value :  5.25013e-06
 Reference value :  5.25017e-06
 Reference value :  5.25020e-06
 Reference value :  5.25020e-06
 Reference value :  5.25020e-06
 Reference value :  5.25020e-06
 Reference value :  5.25021e-06
 Reference value :  5.25022e-06
 Reference value :  5.25023e-06
 Reference value :  5.25027e-06
 Reference value :  5.25033e-06
 Reference value :  5.25042e-06
 Reference value :  5.25058e-06
 Reference value :  5.25076e-06
 Reference value :  5.25108e-06
 Reference value :  5.25172e-06
 Reference value :  5.25234e-06
 Reference value :  5.25305e-06
 Reference value :  5.25379e-06
 Reference value :  5.25473e-06
 Reference value :  5.25576e-06
 Reference value :  5.25652e-06
 Reference value :  5.25741e-06
 Reference value :  5.25836e-06
 Reference value :  5.25948e-06
 Reference value :  5.26069e-06
 Reference value :  5.26309e-06
 Reference value :  5.26619e-06
 Reference value :  5.27069e-06
 Reference value :  5.27925e-06
 Reference value :  5.29635e-06
 Reference value :  5.33057e-06
 Reference value :  5.37013e-06
 Reference value :  5.43461e-06
 Reference value :  5.50000e-06
 Reference value :  5.50001e-06
 Reference value :  5.50003e-06
 Reference value :  5.50007e-06
 Reference value :  5.50010e-06
 Reference value :  5.50010e-06
 Reference value :  5.50010e-06
 Reference value :  5.50010e-06
 Reference value :  5.50011e-06
 Reference value :  5.50012e-06
 Reference value :  5.50013e-06
 Reference value :  5.50017e-06
 Reference value :  5.50023e-06
 Reference value :  5.50036e-06
 Reference value :  5.50063e-06
 Reference value :  5.50110e-06
 Reference value :  5.50176e-06
 Reference value :  5.50247e-06
 Reference value :  5.50308e-06
 Reference value :  5.50385e-06
 Reference value :  5.50481e-06
 Reference value :  5.50576e-06
 Reference value :  5.50670e-06
 Reference value :  5.50778e-06
 Reference value :  5.50921e-06
 Reference value :  5.51077e-06
 Reference value :  5.51230e-06
 Reference value :  5.51365e-06
 Reference value :  5.51516e-06
 Reference value :  5.51685e-06
 Reference value :  5.51860e-06
 Reference value :  5.52210e-06
 Reference value :  5.52700e-06
 Reference value :  5.53674e-06
 Reference value :  5.55412e-06
 Reference value :  5.58202e-06
 Reference value :  5.63074e-06
 Reference value :  5.72818e-06
 Reference value :  5.75010e-06
 Reference value :  5.75011e-06
 Reference value :  5.75013e-06
 Reference value :  5.75017e-06
 Reference value :  5.75020e-06
 Reference value :  5.75020e-06
 Reference value :  5.75020e-06
 Reference value :  5.75020e-06
 Reference value :  5.75021e-06
 Reference value :  5.75022e-06
 Reference value :  5.75023e-06
 Reference value :  5.75027e-06
 Reference value :  5.75033e-06
 Reference value :  5.75041e-06
 Reference value :  5.75058e-06
 Reference value :  5.75077e-06
 Reference value :  5.75108e-06
 Reference value :  5.75170e-06
 Reference value :  5.75233e-06
 Reference value :  5.75303e-06
 Reference value :  5.75376e-06
 Reference value :  5.75470e-06
 Reference value :  5.75573e-06
 Reference value :  5.75648e-06
 Reference value :  5.75736e-06
 Reference value :  5.75836e-06
 Reference value :  5.75928e-06
 Reference value :  5.76040e-06
 Reference value :  5.76162e-06
 Reference value :  5.76311e-06
 Reference value :  5.76467e-06
 Reference value :  5.76686e-06
 Reference value :  5.76934e-06
 Reference value :  5.77353e-06
 Reference value :  5.78113e-06
 Reference value :  5.79274e-06
 Reference value :  5.81414e-06
 Reference value :  5.84932e-06
 Reference value :  5.91004e-06
 Reference value :  6.00000e-06
 Reference value :  6.00001e-06
 Reference value :  6.00003e-06
 Reference value :  6.00007e-06
 Reference value :  6.00010e-06
 Reference value :  6.00010e-06
 Reference value :  6.00010e-06
 Reference value :  6.00010e-06
 Reference value :  6.00011e-06
 Reference value :  6.00012e-06
 Reference value :  6.00013e-06
 Reference value :  6.00017e-06
 Reference value :  6.00023e-06
 Reference value :  6.00036e-06
 Reference value :  6.00063e-06
 Reference value :  6.00109e-06
 Reference value :  6.00175e-06
 Reference value :  6.00247e-06
 Reference value :  6.00309e-06
 Reference value :  6.00385e-06
 Reference value :  6.00482e-06
 Reference value :  6.00571e-06
 Reference value :  6.00666e-06
 Reference value :  6.00762e-06
 Reference value :  6.00855e-06
 Reference value :  6.00956e-06
 Reference value :  6.01080e-06
 Reference value :  6.01201e-06
 Reference value :  6.01443e-06
 Reference value :  6.01700e-06
 Reference value :  6.01888e-06
 Reference value :  6.02103e-06
 Reference value :  6.02327e-06
 Reference value :  6.02591e-06
 Reference value :  6.02799e-06
 Reference value :  6.02951e-06
 Reference value :  6.03118e-06
 Reference value :  6.03302e-06
 Reference value :  6.03511e-06
 Reference value :  6.03726e-06
 Reference value :  6.04034e-06
 Reference value :  6.04379e-06
 Reference value :  6.04732e-06
 Reference value :  6.05094e-06
 Reference value :  6.05423e-06
 Reference value :  6.05801e-06
 Reference value :  6.06308e-06
 Reference value :  6.06881e-06
 Reference value :  6.07965e-06
 Reference value :  6.09943e-06
 Reference value :  6.13174e-06
 Reference value :  6.18948e-06
 Reference value :  6.25010e-06
 Reference value :  6.25011e-06
 Reference value :  6.25013e-06
 Reference value :  6.25017e-06
 Reference value :  6.25020e-06
 Reference value :  6.25020e-06
 Reference value :  6.25020e-06
 Reference value :  6.25020e-06
 Reference value :  6.25021e-06
 Reference value :  6.25022e-06
 Reference value :  6.25023e-06
 Reference value :  6.25027e-06
 Reference value :  6.25033e-06
 Reference value :  6.25041e-06
 Reference value :  6.25058e-06
 Reference value :  6.25076e-06
 Reference value :  6.25106e-06
 Reference value :  6.25166e-06
 Reference value :  6.25229e-06
 Reference value :  6.25299e-06
 Reference value :  6.25371e-06
 Reference value :  6.25464e-06
 Reference value :  6.25565e-06
 Reference value :  6.25692e-06
 Reference value :  6.25794e-06
 Reference value :  6.25903e-06
 Reference value :  6.26020e-06
 Reference value :  6.26202e-06
 Reference value :  6.26375e-06
 Reference value :  6.26720e-06
 Reference value :  6.27212e-06
 Reference value :  6.28065e-06
 Reference value :  6.29676e-06
 Reference value :  6.32391e-06
 Reference value :  6.37822e-06
 Reference value :  6.47149e-06
 Reference value :  6.50000e-06
 Reference value :  6.50001e-06
 Reference value :  6.50003e-06
 Reference value :  6.50007e-06
 Reference value :  6.50010e-06
 Reference value :  6.50010e-06
 Reference value :  6.50010e-06
 Reference value :  6.50010e-06
 Reference value :  6.50011e-06
 Reference value :  6.50012e-06
 Reference value :  6.50013e-06
 Reference value :  6.50017e-06
 Reference value :  6.50023e-06
 Reference value :  6.50036e-06
 Reference value :  6.50063e-06
 Reference value :  6.50110e-06
 Reference value :  6.50176e-06
 Reference value :  6.50246e-06
 Reference value :  6.50308e-06
 Reference value :  6.50385e-06
 Reference value :  6.50480e-06
 Reference value :  6.50576e-06
 Reference value :  6.50669e-06
 Reference value :  6.50772e-06
 Reference value :  6.50881e-06
 Reference value :  6.51049e-06
 Reference value :  6.51224e-06
 Reference value :  6.51357e-06
 Reference value :  6.51513e-06
 Reference value :  6.51672e-06
 Reference value :  6.51849e-06
 Reference value :  6.52202e-06
 Reference value :  6.52624e-06
 Reference value :  6.53469e-06
 Reference value :  6.54052e-06
 Reference value :  6.54731e-06
 Reference value :  6.55493e-06
 Reference value :  6.56349e-06
 Reference value :  6.57881e-06
 Reference value :  6.59795e-06
 Reference value :  6.63072e-06
 Reference value :  6.68215e-06
 Reference value :  6.75010e-06
 Reference value :  6.75011e-06
 Reference value :  6.75013e-06
 Reference value :  6.75017e-06
 Reference value :  6.75020e-06
 Reference value :  6.75020e-06
 Reference value :  6.75020e-06
 Reference value :  6.75020e-06
 Reference value :  6.75021e-06
 Reference value :  6.75022e-06
 Reference value :  6.75023e-06
 Reference value :  6.75027e-06
 Reference value :  6.75033e-06
 Reference value :  6.75041e-06
 Reference value :  6.75058e-06
 Reference value :  6.75080e-06
 Reference value :  6.75108e-06
 Reference value :  6.75163e-06
 Reference value :  6.75225e-06
 Reference value :  6.75292e-06
 Reference value :  6.75365e-06
 Reference value :  6.75457e-06
 Reference value :  6.75558e-06
 Reference value :  6.75681e-06
 Reference value :  6.75776e-06
 Reference value :  6.75880e-06
 Reference value :  6.75983e-06
 Reference value :  6.76093e-06
 Reference value :  6.76214e-06
 Reference value :  6.76345e-06
 Reference value :  6.76493e-06
 Reference value :  6.76742e-06
 Reference value :  6.77010e-06
 Reference value :  6.77412e-06
 Reference value :  6.78024e-06
 Reference value :  6.79247e-06
 Reference value :  6.81695e-06
 Reference value :  6.85516e-06
 Reference value :  6.89026e-06
 Reference value :  6.95579e-06
 Reference value :  7.00000e-06
 Reference value :  7.00001e-06
 Reference value :  7.00003e-06
 Reference value :  7.00007e-06
 Reference value :  7.00010e-06
 Reference value :  7.00010e-06
 Reference value :  7.00010e-06
 Reference value :  7.00010e-06
 Reference value :  7.00011e-06
 Reference value :  7.00012e-06
 Reference value :  7.00013e-06
 Reference value :  7.00017e-06
 Reference value :  7.00023e-06
 Reference value :  7.00036e-06
 Reference value :  7.00063e-06
 Reference value :  7.00109e-06
 Reference value :  7.00175e-06
 Reference value :  7.00246e-06
 Reference value :  7.00309e-06
 Reference value :  7.00385e-06
 Reference value :  7.00481e-06
 Reference value :  7.00571e-06
 Reference value :  7.00665e-06
 Reference value :  7.00739e-06
 Reference value :  7.00824e-06
 Reference value :  7.00911e-06
 Reference value :  7.00996e-06
 Reference value :  7.01105e-06
 Reference value :  7.01223e-06
 Reference value :  7.01457e-06
 Reference value :  7.01756e-06
 Reference value :  7.01967e-06
 Reference value :  7.02194e-06
 Reference value :  7.02400e-06
 Reference value :  7.02622e-06
 Reference value :  7.02807e-06
 Reference value :  7.02992e-06
 Reference value :  7.03131e-06
 Reference value :  7.03284e-06
 Reference value :  7.03459e-06
 Reference value :  7.03642e-06
 Reference value :  7.03943e-06
 Reference value :  7.04314e-06
 Reference value :  7.04785e-06
 Reference value :  7.05501e-06
 Reference value :  7.06788e-06
 Reference value :  7.08794e-06
 Reference value :  7.12683e-06
 Reference value :  7.19105e-06
 Reference value :  7.25010e-06
 Reference value :  7.25011e-06
 Reference value :  7.25013e-06
 Reference value :  7.25017e-06
 Reference value :  7.25020e-06
 Reference value :  7.25020e-06
 Reference value :  7.25020e-06
 Reference value :  7.25020e-06
 Reference value :  7.25021e-06
 Reference value :  7.25022e-06
 Reference value :  7.25023e-06
 Reference value :  7.25027e-06
 Reference value :  7.25033e-06
 Reference value :  7.25042e-06
 Reference value :  7.25059e-06
 Reference value :  7.25077e-06
 Reference value :  7.25107e-06
 Reference value :  7.25167e-06
 Reference value :  7.25229e-06
 Reference value :  7.25299e-06
 Reference value :  7.25372e-06
 Reference value :  7.25465e-06
 Reference value :  7.25566e-06
 Reference value :  7.25662e-06
 Reference value :  7.25771e-06
 Reference value :  7.25883e-06
 Reference value :  7.25994e-06
 Reference value :  7.26171e-06
 Reference value :  7.26366e-06
 Reference value :  7.26734e-06
 Reference value :  7.27238e-06
 Reference value :  7.28246e-06
 Reference value :  7.30099e-06
 Reference value :  7.33617e-06
 Reference value :  7.40654e-06
 Reference value :  7.50000e-06
 Reference value :  7.50001e-06
 Reference value :  7.50003e-06
 Reference value :  7.50007e-06
 Reference value :  7.50010e-06
 Reference value :  7.50010e-06
 Reference value :  7.50010e-06
 Reference value :  7.50010e-06
 Reference value :  7.50011e-06
 Reference value :  7.50012e-06
 Reference value :  7.50013e-06
 Reference value :  7.50017e-06
 Reference value :  7.50023e-06
 Reference value :  7.50036e-06
 Reference value :  7.50063e-06
 Reference value :  7.50110e-06
 Reference value :  7.50172e-06
 Reference value :  7.50245e-06
 Reference value :  7.50308e-06
 Reference value :  7.50384e-06
 Reference value :  7.50479e-06
 Reference value :  7.50575e-06
 Reference value :  7.50668e-06
 Reference value :  7.50785e-06
 Reference value :  7.50906e-06
 Reference value :  7.51093e-06
 Reference value :  7.51293e-06
 Reference value :  7.51465e-06
 Reference value :  7.51645e-06
 Reference value :  7.51877e-06
 Reference value :  7.52119e-06
 Reference value :  7.52529e-06
 Reference value :  7.53097e-06
 Reference value :  7.54042e-06
 Reference value :  7.55662e-06
 Reference value :  7.58285e-06
 Reference value :  7.63097e-06
 Reference value :  7.71741e-06
 Reference value :  7.75010e-06
 Reference value :  7.75011e-06
 Reference value :  7.75013e-06
 Reference value :  7.75017e-06
 Reference value :  7.75020e-06
 Reference value :  7.75020e-06
 Reference value :  7.75020e-06
 Reference value :  7.75020e-06
 Reference value :  7.75021e-06
 Reference value :  7.75022e-06
 Reference value :  7.75023e-06
 Reference value :  7.75027e-06
 Reference value :  7.75033e-06
 Reference value :  7.75042e-06
 Reference value :  7.75059e-06
 Reference value :  7.75082e-06
 Reference value :  7.75109e-06
 Reference value :  7.75165e-06
 Reference value :  7.75226e-06
 Reference value :  7.75292e-06
 Reference value :  7.75365e-06
 Reference value :  7.75457e-06
 Reference value :  7.75558e-06
 Reference value :  7.75658e-06
 Reference value :  7.75763e-06
 Reference value :  7.75858e-06
 Reference value :  7.75957e-06
 Reference value :  7.76064e-06
 Reference value :  7.76189e-06
 Reference value :  7.76437e-06
 Reference value :  7.76854e-06
 Reference value :  7.77498e-06
 Reference value :  7.78786e-06
 Reference value :  7.81362e-06
 Reference value :  7.86514e-06
 Reference value :  7.96817e-06
 Reference value :  8.00000e-06
 Reference value :  8.00001e-06
 Reference value :  8.00003e-06
 Reference value :  8.00007e-06
 Reference value :  8.00010e-06
 Reference value :  8.00010e-06
 Reference value :  8.00010e-06
 Reference value :  8.00010e-06
 Reference value :  8.00011e-06
 Reference value :  8.00012e-06
 Reference value :  8.00013e-06
 Reference value :  8.00017e-06
 Reference value :  8.00023e-06
 Reference value :  8.00036e-06
 Reference value :  8.00063e-06
 Reference value :  8.00110e-06
 Reference value :  8.00172e-06
 Reference value :  8.00245e-06
 Reference value :  8.00308e-06
 Reference value :  8.00385e-06
 Reference value :  8.00482e-06
 Reference value :  8.00575e-06
 Reference value :  8.00670e-06
 Reference value :  8.00756e-06
 Reference value :  8.00850e-06
 Reference value :  8.00954e-06
 Reference value :  8.01069e-06
 Reference value :  8.01242e-06
 Reference value :  8.01395e-06
 Reference value :  8.01557e-06
 Reference value :  8.01724e-06
 Reference value :  8.01905e-06
 Reference value :  8.02268e-06
 Reference value :  8.02811e-06
 Reference value :  8.03700e-06
 Reference value :  8.05480e-06
 Reference value :  8.09039e-06
 Reference value :  8.16158e-06
 Reference value :  8.25010e-06
 Reference value :  8.25011e-06
 Reference value :  8.25013e-06
 Reference value :  8.25017e-06
 Reference value :  8.25020e-06
 Reference value :  8.25020e-06
 Reference value :  8.25020e-06
 Reference value :  8.25020e-06
 Reference value :  8.25021e-06
 Reference value :  8.25022e-06
 Reference value :  8.25023e-06
 Reference value :  8.25027e-06
 Reference value :  8.25033e-06
 Reference value :  8.25047e-06
 Reference value :  8.25064e-06
 Reference value :  8.25085e-06
 Reference value :  8.25127e-06
 Reference value :  8.25193e-06
 Reference value :  8.25261e-06
 Reference value :  8.25331e-06
 Reference value :  8.25422e-06
 Reference value :  8.25545e-06
 Reference value :  8.25660e-06
 Reference value :  8.25789e-06
 Reference value :  8.25953e-06
 Reference value :  8.26158e-06
 Reference value :  8.26424e-06
 Reference value :  8.26765e-06
 Reference value :  8.27258e-06
 Reference value :  8.28243e-06
 Reference value :  8.29637e-06
 Reference value :  8.32425e-06
 Reference value :  8.38001e-06
 Reference value :  8.48573e-06
 Reference value :  8.50000e-06
 Reference value :  8.50001e-06
 Reference value :  8.50003e-06
 Reference value :  8.50007e-06
 Reference value :  8.50010e-06
 Reference value :  8.50010e-06
 Reference value :  8.50010e-06
 Reference value :  8.50010e-06
 Reference value :  8.50011e-06
 Reference value :  8.50012e-06
 Reference value :  8.50013e-06
 Reference value :  8.50017e-06
 Reference value :  8.50023e-06
 Reference value :  8.50036e-06
 Reference value :  8.50063e-06
 Reference value :  8.50108e-06
 Reference value :  8.50175e-06
 Reference value :  8.50253e-06
 Reference value :  8.50323e-06
 Reference value :  8.50398e-06
 Reference value :  8.50475e-06
 Reference value :  8.50560e-06
 Reference value :  8.50655e-06
 Reference value :  8.50786e-06
 Reference value :  8.50877e-06
 Reference value :  8.50982e-06
 Reference value :  8.51108e-06
 Reference value :  8.51245e-06
 Reference value :  8.51518e-06
 Reference value :  8.51830e-06
 Reference value :  8.52453e-06
 Reference value :  8.53632e-06
 Reference value :  8.54572e-06
 Reference value :  8.55504e-06
 Reference value :  8.56144e-06
 Reference value :  8.56547e-06
 Reference value :  8.56907e-06
 Reference value :  8.57280e-06
 Reference value :  8.57713e-06
 Reference value :  8.58180e-06
 Reference value :  8.58844e-06
 Reference value :  8.59639e-06
 Reference value :  8.60742e-06
 Reference value :  8.62201e-06
 Reference value :  8.64268e-06
 Reference value :  8.66327e-06
 Reference value :  8.68965e-06
 Reference value :  8.72009e-06
 Reference value :  8.75010e-06
 Reference value :  8.75011e-06
 Reference value :  8.75013e-06
 Reference value :  8.75017e-06
 Reference value :  8.75020e-06
 Reference value :  8.75020e-06
 Reference value :  8.75020e-06
 Reference value :  8.75020e-06
 Reference value :  8.75021e-06
 Reference value :  8.75022e-06
 Reference value :  8.75023e-06
 Reference value :  8.75027e-06
 Reference value :  8.75033e-06
 Reference value :  8.75047e-06
 Reference value :  8.75064e-06
 Reference value :  8.75091e-06
 Reference value :  8.75145e-06
 Reference value :  8.75211e-06
 Reference value :  8.75281e-06
 Reference value :  8.75354e-06
 Reference value :  8.75447e-06
 Reference value :  8.75553e-06
 Reference value :  8.75660e-06
 Reference value :  8.75765e-06
 Reference value :  8.75876e-06
 Reference value :  8.76010e-06
 Reference value :  8.76132e-06
 Reference value :  8.76285e-06
 Reference value :  8.76590e-06
 Reference value :  8.76988e-06
 Reference value :  8.77734e-06
 Reference value :  8.78891e-06
 Reference value :  8.80812e-06
 Reference value :  8.84085e-06
 Reference value :  8.90317e-06
 Reference value :  9.00000e-06
 Reference value :  9.00001e-06
 Reference value :  9.00003e-06
 Reference value :  9.00007e-06
 Reference value :  9.00010e-06
 Reference value :  9.00010e-06
 Reference value :  9.00010e-06
 Reference value :  9.00010e-06
 Reference value :  9.00011e-06
 Reference value :  9.00012e-06
 Reference value :  9.00013e-06
 Reference value :  9.00017e-06
 Reference value :  9.00023e-06
 Reference value :  9.00036e-06
 Reference value :  9.00056e-06
 Reference value :  9.00096e-06
 Reference value :  9.00147e-06
 Reference value :  9.00201e-06
 Reference value :  9.00276e-06
 Reference value :  9.00357e-06
 Reference value :  9.00432e-06
 Reference value :  9.00513e-06
 Reference value :  9.00613e-06
 Reference value :  9.00713e-06
 Reference value :  9.00839e-06
 Reference value :  9.00961e-06
 Reference value :  9.01141e-06
 Reference value :  9.01338e-06
 Reference value :  9.01529e-06
 Reference value :  9.01709e-06
 Reference value :  9.01992e-06
 Reference value :  9.02260e-06
 Reference value :  9.02613e-06
 Reference value :  9.02921e-06
 Reference value :  9.03240e-06
 Reference value :  9.03653e-06
 Reference value :  9.04194e-06
 Reference value :  9.04837e-06
 Reference value :  9.05581e-06
 Reference value :  9.06784e-06
 Reference value :  9.08961e-06
 Reference value :  9.12211e-06
 Reference value :  9.18010e-06
 Reference value :  9.25010e-06
 Reference value :  9.25011e-06
 Reference value :  9.25013e-06
 Reference value :  9.25017e-06
 Reference value :  9.25020e-06
 Reference value :  9.25020e-06
 Reference value :  9.25020e-06
 Reference value :  9.25020e-06
 Reference value :  9.25021e-06
 Reference value :  9.25022e-06
 Reference value :  9.25023e-06
 Reference value :  9.25027e-06
 Reference value :  9.25033e-06
 Reference value :  9.25047e-06
 Reference value :  9.25064e-06
 Reference value :  9.25091e-06
 Reference value :  9.25145e-06
 Reference value :  9.25210e-06
 Reference value :  9.25280e-06
 Reference value :  9.25353e-06
 Reference value :  9.25443e-06
 Reference value :  9.25552e-06
 Reference value :  9.25665e-06
 Reference value :  9.25768e-06
 Reference value :  9.25877e-06
 Reference value :  9.25976e-06
 Reference value :  9.26081e-06
 Reference value :  9.26233e-06
 Reference value :  9.26390e-06
 Reference value :  9.26703e-06
 Reference value :  9.27211e-06
 Reference value :  9.27992e-06
 Reference value :  9.29463e-06
 Reference value :  9.31767e-06
 Reference value :  9.35849e-06
 Reference value :  9.42760e-06
 Reference value :  9.50000e-06
 Reference value :  9.50001e-06
 Reference value :  9.50003e-06
 Reference value :  9.50007e-06
 Reference value :  9.50010e-06
 Reference value :  9.50010e-06
 Reference value :  9.50010e-06
 Reference value :  9.50010e-06
 Reference value :  9.50011e-06
 Reference value :  9.50012e-06
 Reference value :  9.50013e-06
 Reference value :  9.50017e-06
 Reference value :  9.50023e-06
 Reference value :  9.50036e-06
 Reference value :  9.50056e-06
 Reference value :  9.50096e-06
 Reference value :  9.50147e-06
 Reference value :  9.50201e-06
 Reference value :  9.50276e-06
 Reference value :  9.50346e-06
 Reference value :  9.50420e-06
 Reference value :  9.50499e-06
 Reference value :  9.50587e-06
 Reference value :  9.50691e-06
 Reference value :  9.50774e-06
 Reference value :  9.50867e-06
 Reference value :  9.50966e-06
 Reference value :  9.51084e-06
 Reference value :  9.51249e-06
 Reference value :  9.51493e-06
 Reference value :  9.51837e-06
 Reference value :  9.52256e-06
 Reference value :  9.52577e-06
 Reference value :  9.52863e-06
 Reference value :  9.53084e-06
 Reference value :  9.53289e-06
 Reference value :  9.53525e-06
 Reference value :  9.53752e-06
 Reference value :  9.54008e-06
 Reference value :  9.54372e-06
 Reference value :  9.54820e-06
 Reference value :  9.55481e-06
 Reference value :  9.56461e-06
 Reference value :  9.57928e-06
 Reference value :  9.60252e-06
 Reference value :  9.63768e-06
 Reference value :  9.69353e-06
 Reference value :  9.75010e-06
 Reference value :  9.75011e-06
 Reference value :  9.75013e-06
 Reference value :  9.75017e-06
 Reference value :  9.75020e-06
 Reference value :  9.75020e-06
 Reference value :  9.75020e-06
 Reference value :  9.75020e-06
 Reference value :  9.75021e-06
 Reference value :  9.75022e-06
 Reference value :  9.75023e-06
 Reference value :  9.75027e-06
 Reference value :  9.75033e-06
 Reference value :  9.75047e-06
 Reference value :  9.75064e-06
 Reference value :  9.75091e-06
 Reference value :  9.75145e-06
 Reference value :  9.75210e-06
 Reference value :  9.75288e-06
 Reference value :  9.75358e-06
 Reference value :  9.75455e-06
 Reference value :  9.75561e-06
 Reference value :  9.75650e-06
 Reference value :  9.75754e-06
 Reference value :  9.75867e-06
 Reference value :  9.75982e-06
 Reference value :  9.76126e-06
 Reference value :  9.76389e-06
 Reference value :  9.76727e-06
 Reference value :  9.77239e-06
 Reference value :  9.77787e-06
 Reference value :  9.78438e-06
 Reference value :  9.79284e-06
 Reference value :  9.80976e-06
 Reference value :  9.83906e-06
 Reference value :  9.89766e-06
 Reference value :  1.00000e-05
 Reference value :  1.00000e-05
 Reference value :  1.00000e-05
 Reference value :  1.00001e-05
 Reference value :  1.00001e-05
 Reference value :  1.00001e-05
 Reference value :  1.00001e-05
 Reference value :  1.00001e-05
 Reference value :  1.00001e-05
 Reference value :  1.00001e-05
 Reference value :  1.00001e-05
 Reference value :  1.00002e-05
 Reference value :  1.00002e-05
 Reference value :  1.00004e-05
 Reference value :  1.00006e-05
 Reference value :  1.00010e-05
 Reference value :  1.00015e-05
 Reference value :  1.00020e-05
 Reference value :  1.00027e-05
 Reference value :  1.00034e-05
 Reference value :  1.00042e-05
 Reference value :  1.00050e-05
 Reference value :  1.00059e-05
 Reference value :  1.00070e-05
 Reference value :  1.00080e-05
 Reference value :  1.00096e-05
 Reference value :  1.00112e-05
 Reference value :  1.00132e-05
 Reference value :  1.00148e-05
 Reference value :  1.00165e-05
 Reference value :  1.00188e-05
 Reference value :  1.00211e-05
 Reference value :  1.00250e-05
 Reference value :  1.00301e-05
 Reference value :  1.00379e-05
 Reference value :  1.00502e-05
 Reference value :  1.00723e-05
 Reference value :  1.01135e-05
 Reference value :  1.01850e-05
 Reference value :  1.02501e-05
 Reference value :  1.02501e-05
 Reference value :  1.02501e-05
 Reference value :  1.02502e-05
 Reference value :  1.02502e-05
 Reference value :  1.02502e-05
 Reference value :  1.02502e-05
 Reference value :  1.02502e-05
 Reference value :  1.02502e-05
 Reference value :  1.02502e-05
 Reference value :  1.02502e-05
 Reference value :  1.02503e-05
 Reference value :  1.02503e-05
 Reference value :  1.02505e-05
 Reference value :  1.02506e-05
 Reference value :  1.02509e-05
 Reference value :  1.02515e-05
 Reference value :  1.02521e-05
 Reference value :  1.02529e-05
 Reference value :  1.02536e-05
 Reference value :  1.02545e-05
 Reference value :  1.02556e-05
 Reference value :  1.02565e-05
 Reference value :  1.02576e-05
 Reference value :  1.02585e-05
 Reference value :  1.02595e-05
 Reference value :  1.02606e-05
 Reference value :  1.02619e-05
 Reference value :  1.02634e-05
 Reference value :  1.02650e-05
 Reference value :  1.02674e-05
 Reference value :  1.02700e-05
 Reference value :  1.02744e-05
 Reference value :  1.02831e-05
 Reference value :  1.02962e-05
 Reference value :  1.03218e-05
 Reference value :  1.03651e-05
 Reference value :  1.04419e-05
 Reference value :  1.05000e-05
 Reference value :  1.05000e-05
 Reference value :  1.05000e-05
 Reference value :  1.05001e-05
 Reference value :  1.05001e-05
 Reference value :  1.05001e-05
 Reference value :  1.05001e-05
 Reference value :  1.05001e-05
 Reference value :  1.05001e-05
 Reference value :  1.05001e-05
 Reference value :  1.05001e-05
 Reference value :  1.05002e-05
 Reference value :  1.05002e-05
 Reference value :  1.05004e-05
 Reference value :  1.05006e-05
 Reference value :  1.05010e-05
 Reference value :  1.05015e-05
 Reference value :  1.05020e-05
 Reference value :  1.05027e-05
 Reference value :  1.05034e-05
 Reference value :  1.05042e-05
 Reference value :  1.05050e-05
 Reference value :  1.05059e-05
 Reference value :  1.05066e-05
 Reference value :  1.05075e-05
 Reference value :  1.05082e-05
 Reference value :  1.05090e-05
 Reference value :  1.05101e-05
 Reference value :  1.05112e-05
 Reference value :  1.05132e-05
 Reference value :  1.05154e-05
 Reference value :  1.05176e-05
 Reference value :  1.05198e-05
 Reference value :  1.05219e-05
 Reference value :  1.05242e-05
 Reference value :  1.05261e-05
 Reference value :  1.05275e-05
 Reference value :  1.05290e-05
 Reference value :  1.05307e-05
 Reference value :  1.05325e-05
 Reference value :  1.05345e-05
 Reference value :  1.05375e-05
 Reference value :  1.05409e-05
 Reference value :  1.05472e-05
 Reference value :  1.05552e-05
 Reference value :  1.05638e-05
 Reference value :  1.05810e-05
 Reference value :  1.05986e-05
 Reference value :  1.06145e-05
 Reference value :  1.06248e-05
 Reference value :  1.06342e-05
 Reference value :  1.06450e-05
 Reference value :  1.06577e-05
 Reference value :  1.06786e-05
 Reference value :  1.07036e-05
 Reference value :  1.07439e-05
 Reference value :  1.07501e-05
 Reference value :  1.07501e-05
 Reference value :  1.07501e-05
 Reference value :  1.07502e-05
 Reference value :  1.07502e-05
 Reference value :  1.07502e-05
 Reference value :  1.07502e-05
 Reference value :  1.07502e-05
 Reference value :  1.07502e-05
 Reference value :  1.07502e-05
 Reference value :  1.07502e-05
 Reference value :  1.07503e-05
 Reference value :  1.07503e-05
 Reference value :  1.07505e-05
 Reference value :  1.07506e-05
 Reference value :  1.07509e-05
 Reference value :  1.07515e-05
 Reference value :  1.07521e-05
 Reference value :  1.07529e-05
 Reference value :  1.07536e-05
 Reference value :  1.07545e-05
 Reference value :  1.07556e-05
 Reference value :  1.07566e-05
 Reference value :  1.07577e-05
 Reference value :  1.07588e-05
 Reference value :  1.07604e-05
 Reference value :  1.07624e-05
 Reference value :  1.07650e-05
 Reference value :  1.07689e-05
 Reference value :  1.07756e-05
 Reference value :  1.07862e-05
 Reference value :  1.08039e-05
 Reference value :  1.08392e-05
 Reference value :  1.09027e-05
 Reference value :  1.09668e-05
 Reference value :  1.10000e-05
 Reference value :  1.10000e-05
 Reference value :  1.10000e-05
 Reference value :  1.10001e-05
 Reference value :  1.10001e-05
 Reference value :  1.10001e-05
 Reference value :  1.10001e-05
 Reference value :  1.10001e-05
 Reference value :  1.10001e-05
 Reference value :  1.10001e-05
 Reference value :  1.10001e-05
 Reference value :  1.10002e-05
 Reference value :  1.10002e-05
 Reference value :  1.10004e-05
 Reference value :  1.10005e-05
 Reference value :  1.10009e-05
 Reference value :  1.10014e-05
 Reference value :  1.10019e-05
 Reference value :  1.10027e-05
 Reference value :  1.10034e-05
 Reference value :  1.10041e-05
 Reference value :  1.10049e-05
 Reference value :  1.10057e-05
 Reference value :  1.10067e-05
 Reference value :  1.10079e-05
 Reference value :  1.10095e-05
 Reference value :  1.10117e-05
 Reference value :  1.10132e-05
 Reference value :  1.10148e-05
 Reference value :  1.10165e-05
 Reference value :  1.10188e-05
 Reference value :  1.10213e-05
 Reference value :  1.10255e-05
 Reference value :  1.10314e-05
 Reference value :  1.10408e-05
 Reference value :  1.10587e-05
 Reference value :  1.10877e-05
 Reference value :  1.11400e-05
 Reference value :  1.12308e-05
 Reference value :  1.12501e-05
 Reference value :  1.12501e-05
 Reference value :  1.12501e-05
 Reference value :  1.12502e-05
 Reference value :  1.12502e-05
 Reference value :  1.12502e-05
 Reference value :  1.12502e-05
 Reference value :  1.12502e-05
 Reference value :  1.12502e-05
 Reference value :  1.12502e-05
 Reference value :  1.12502e-05
 Reference value :  1.12503e-05
 Reference value :  1.12503e-05
 Reference value :  1.12505e-05
 Reference value :  1.12506e-05
 Reference value :  1.12509e-05
 Reference value :  1.12515e-05
 Reference value :  1.12521e-05
 Reference value :  1.12529e-05
 Reference value :  1.12536e-05
 Reference value :  1.12545e-05
 Reference value :  1.12556e-05
 Reference value :  1.12566e-05
 Reference value :  1.12575e-05
 Reference value :  1.12584e-05
 Reference value :  1.12596e-05
 Reference value :  1.12608e-05
 Reference value :  1.12633e-05
 Reference value :  1.12664e-05
 Reference value :  1.12711e-05
 Reference value :  1.12794e-05
 Reference value :  1.12941e-05
 Reference value :  1.13188e-05
 Reference value :  1.13681e-05
 Reference value :  1.14669e-05
 Reference value :  1.15000e-05
 Reference value :  1.15000e-05
 Reference value :  1.15000e-05
 Reference value :  1.15001e-05
 Reference value :  1.15001e-05
 Reference value :  1.15001e-05
 Reference value :  1.15001e-05
 Reference value :  1.15001e-05
 Reference value :  1.15001e-05
 Reference value :  1.15001e-05
 Reference value :  1.15001e-05
 Reference value :  1.15002e-05
 Reference value :  1.15002e-05
 Reference value :  1.15004e-05
 Reference value :  1.15005e-05
 Reference value :  1.15009e-05
 Reference value :  1.15014e-05
 Reference value :  1.15019e-05
 Reference value :  1.15027e-05
 Reference value :  1.15034e-05
 Reference value :  1.15041e-05
 Reference value :  1.15049e-05
 Reference value :  1.15057e-05
 Reference value :  1.15067e-05
 Reference value :  1.15076e-05
 Reference value :  1.15084e-05
 Reference value :  1.15093e-05
 Reference value :  1.15105e-05
 Reference value :  1.15117e-05
 Reference value :  1.15140e-05
 Reference value :  1.15162e-05
 Reference value :  1.15190e-05
 Reference value :  1.15213e-05
 Reference value :  1.15237e-05
 Reference value :  1.15253e-05
 Reference value :  1.15270e-05
 Reference value :  1.15290e-05
 Reference value :  1.15309e-05
 Reference value :  1.15332e-05
 Reference value :  1.15361e-05
 Reference value :  1.15400e-05
 Reference value :  1.15462e-05
 Reference value :  1.15555e-05
 Reference value :  1.15708e-05
 Reference value :  1.15872e-05
 Reference value :  1.16026e-05
 Reference value :  1.16172e-05
 Reference value :  1.16277e-05
 Reference value :  1.16377e-05
 Reference value :  1.16498e-05
 Reference value :  1.16574e-05
 Reference value :  1.16677e-05
 Reference value :  1.16787e-05
 Reference value :  1.16974e-05
 Reference value :  1.17203e-05
 Reference value :  1.17501e-05
 Reference value :  1.17501e-05
 Reference value :  1.17501e-05
 Reference value :  1.17502e-05
 Reference value :  1.17502e-05
 Reference value :  1.17502e-05
 Reference value :  1.17502e-05
 Reference value :  1.17502e-05
 Reference value :  1.17502e-05
 Reference value :  1.17502e-05
 Reference value :  1.17502e-05
 Reference value :  1.17503e-05
 Reference value :  1.17503e-05
 Reference value :  1.17505e-05
 Reference value :  1.17506e-05
 Reference value :  1.17509e-05
 Reference value :  1.17515e-05
 Reference value :  1.17521e-05
 Reference value :  1.17529e-05
 Reference value :  1.17536e-05
 Reference value :  1.17545e-05
 Reference value :  1.17556e-05
 Reference value :  1.17566e-05
 Reference value :  1.17576e-05
 Reference value :  1.17586e-05
 Reference value :  1.17604e-05
 Reference value :  1.17620e-05
 Reference value :  1.17648e-05
 Reference value :  1.17682e-05
 Reference value :  1.17751e-05
 Reference value :  1.17859e-05
 Reference value :  1.18020e-05
 Reference value :  1.18186e-05
 Reference value :  1.18370e-05
 Reference value :  1.18497e-05
 Reference value :  1.18615e-05
 Reference value :  1.18747e-05
 Reference value :  1.18873e-05
 Reference value :  1.19080e-05
 Reference value :  1.19304e-05
 Reference value :  1.19640e-05
 Reference value :  1.20000e-05
 Reference value :  1.20000e-05
 Reference value :  1.20000e-05
 Reference value :  1.20001e-05
 Reference value :  1.20001e-05
 Reference value :  1.20001e-05
 Reference value :  1.20001e-05
 Reference value :  1.20001e-05
 Reference value :  1.20001e-05
 Reference value :  1.20001e-05
 Reference value :  1.20001e-05
 Reference value :  1.20002e-05
 Reference value :  1.20002e-05
 Reference value :  1.20004e-05
 Reference value :  1.20005e-05
 Reference value :  1.20009e-05
 Reference value :  1.20014e-05
 Reference value :  1.20019e-05
 Reference value :  1.20027e-05
 Reference value :  1.20034e-05
 Reference value :  1.20041e-05
 Reference value :  1.20049e-05
 Reference value :  1.20058e-05
 Reference value :  1.20068e-05
 Reference value :  1.20079e-05
 Reference value :  1.20096e-05
 Reference value :  1.20111e-05
 Reference value :  1.20128e-05
 Reference value :  1.20145e-05
 Reference value :  1.20163e-05
 Reference value :  1.20181e-05
 Reference value :  1.20206e-05
 Reference value :  1.20235e-05
 Reference value :  1.20285e-05
 Reference value :  1.20360e-05
 Reference value :  1.20487e-05
 Reference value :  1.20714e-05
 Reference value :  1.21102e-05
 Reference value :  1.21809e-05
 Reference value :  1.22501e-05
 Reference value :  1.22501e-05
 Reference value :  1.22501e-05
 Reference value :  1.22502e-05
 Reference value :  1.22502e-05
 Reference value :  1.22502e-05
 Reference value :  1.22502e-05
 Reference value :  1.22502e-05
 Reference value :  1.22502e-05
 Reference value :  1.22502e-05
 Reference value :  1.22502e-05
 Reference value :  1.22503e-05
 Reference value :  1.22503e-05
 Reference value :  1.22505e-05
 Reference value :  1.22506e-05
 Reference value :  1.22509e-05
 Reference value :  1.22515e-05
 Reference value :  1.22521e-05
 Reference value :  1.22529e-05
 Reference value :  1.22536e-05
 Reference value :  1.22545e-05
 Reference value :  1.22556e-05
 Reference value :  1.22565e-05
 Reference value :  1.22575e-05
 Reference value :  1.22584e-05
 Reference value :  1.22594e-05
 Reference value :  1.22606e-05
 Reference value :  1.22630e-05
 Reference value :  1.22661e-05
 Reference value :  1.22706e-05
 Reference value :  1.22784e-05
 Reference value :  1.22940e-05
 Reference value :  1.23239e-05
 Reference value :  1.23837e-05
 Reference value :  1.25000e-05
 Reference value :  1.25000e-05
 Reference value :  1.25000e-05
 Reference value :  1.25001e-05
 Reference value :  1.25001e-05
 Reference value :  1.25001e-05
 Reference value :  1.25001e-05
 Reference value :  1.25001e-05
 Reference value :  1.25001e-05
 Reference value :  1.25001e-05
 Reference value :  1.25001e-05
 Reference value :  1.25002e-05
 Reference value :  1.25002e-05
 Reference value :  1.25004e-05
 Reference value :  1.25005e-05
 Reference value :  1.25009e-05
 Reference value :  1.25014e-05
 Reference value :  1.25019e-05
 Reference value :  1.25027e-05
 Reference value :  1.25034e-05
 Reference value :  1.25041e-05
 Reference value :  1.25049e-05
 Reference value :  1.25057e-05
 Reference value :  1.25066e-05
 Reference value :  1.25074e-05
 Reference value :  1.25084e-05
 Reference value :  1.25093e-05
 Reference value :  1.25103e-05
 Reference value :  1.25118e-05
 Reference value :  1.25133e-05
 Reference value :  1.25158e-05
 Reference value :  1.25184e-05
 Reference value :  1.25209e-05
 Reference value :  1.25234e-05
 Reference value :  1.25254e-05
 Reference value :  1.25272e-05
 Reference value :  1.25288e-05
 Reference value :  1.25306e-05
 Reference value :  1.25327e-05
 Reference value :  1.25353e-05
 Reference value :  1.25385e-05
 Reference value :  1.25436e-05
 Reference value :  1.25491e-05
 Reference value :  1.25548e-05
 Reference value :  1.25609e-05
 Reference value :  1.25657e-05
 Reference value :  1.25710e-05
 Reference value :  1.25764e-05
 Reference value :  1.25818e-05
 Reference value :  1.25901e-05
 Reference value :  1.25981e-05
 Reference value :  1.26055e-05
 Reference value :  1.26148e-05
 Reference value :  1.26294e-05
 Reference value :  1.26519e-05
 Reference value :  1.26969e-05
 Reference value :  1.27501e-05
 Reference value :  1.27501e-05
 Reference value :  1.27501e-05
 Reference value :  1.27502e-05
 Reference value :  1.27502e-05
 Reference value :  1.27502e-05
 Reference value :  1.27502e-05
 Reference value :  1.27502e-05
 Reference value :  1.27502e-05
 Reference value :  1.27502e-05
 Reference value :  1.27502e-05
 Reference value :  1.27503e-05
 Reference value :  1.27503e-05
 Reference value :  1.27504e-05
 Reference value :  1.27506e-05
 Reference value :  1.27508e-05
 Reference value :  1.27511e-05
 Reference value :  1.27517e-05
 Reference value :  1.27523e-05
 Reference value :  1.27530e-05
 Reference value :  1.27538e-05
 Reference value :  1.27547e-05
 Reference value :  1.27555e-05
 Reference value :  1.27564e-05
 Reference value :  1.27573e-05
 Reference value :  1.27582e-05
 Reference value :  1.27598e-05
 Reference value :  1.27614e-05
 Reference value :  1.27640e-05
 Reference value :  1.27673e-05
 Reference value :  1.27724e-05
 Reference value :  1.27828e-05
 Reference value :  1.28034e-05
 Reference value :  1.28447e-05
 Reference value :  1.29274e-05
 Reference value :  1.30000e-05
 Reference value :  1.30000e-05
 Reference value :  1.30000e-05
 Reference value :  1.30001e-05
 Reference value :  1.30001e-05
 Reference value :  1.30001e-05
 Reference value :  1.30001e-05
 Reference value :  1.30001e-05
 Reference value :  1.30001e-05
 Reference value :  1.30001e-05
 Reference value :  1.30001e-05
 Reference value :  1.30002e-05
 Reference value :  1.30002e-05
 Reference value :  1.30004e-05
 Reference value :  1.30006e-05
 Reference value :  1.30011e-05
 Reference value :  1.30018e-05
 Reference value :  1.30025e-05
 Reference value :  1.30031e-05
 Reference value :  1.30039e-05
 Reference value :  1.30048e-05
 Reference value :  1.30058e-05
 Reference value :  1.30067e-05
 Reference value :  1.30079e-05
 Reference value :  1.30093e-05
 Reference value :  1.30110e-05
 Reference value :  1.30124e-05
 Reference value :  1.30138e-05
 Reference value :  1.30153e-05
 Reference value :  1.30170e-05
 Reference value :  1.30188e-05
 Reference value :  1.30220e-05
 Reference value :  1.30268e-05
 Reference value :  1.30356e-05
 Reference value :  1.30523e-05
 Reference value :  1.30817e-05
 Reference value :  1.31405e-05
 Reference value :  1.32501e-05
 Reference value :  1.32501e-05
 Reference value :  1.32501e-05
 Reference value :  1.32502e-05
 Reference value :  1.32502e-05
 Reference value :  1.32502e-05
 Reference value :  1.32502e-05
 Reference value :  1.32502e-05
 Reference value :  1.32502e-05
 Reference value :  1.32502e-05
 Reference value :  1.32502e-05
 Reference value :  1.32503e-05
 Reference value :  1.32503e-05
 Reference value :  1.32504e-05
 Reference value :  1.32506e-05
 Reference value :  1.32508e-05
 Reference value :  1.32511e-05
 Reference value :  1.32517e-05
 Reference value :  1.32523e-05
 Reference value :  1.32530e-05
 Reference value :  1.32538e-05
 Reference value :  1.32547e-05
 Reference value :  1.32555e-05
 Reference value :  1.32565e-05
 Reference value :  1.32573e-05
 Reference value :  1.32582e-05
 Reference value :  1.32592e-05
 Reference value :  1.32603e-05
 Reference value :  1.32618e-05
 Reference value :  1.32632e-05
 Reference value :  1.32656e-05
 Reference value :  1.32681e-05
 Reference value :  1.32719e-05
 Reference value :  1.32771e-05
 Reference value :  1.32874e-05
 Reference value :  1.33082e-05
 Reference value :  1.33496e-05
 Reference value :  1.34325e-05
 Reference value :  1.35000e-05
 Reference value :  1.35000e-05
 Reference value :  1.35000e-05
 Reference value :  1.35001e-05
 Reference value :  1.35001e-05
 Reference value :  1.35001e-05
 Reference value :  1.35001e-05
 Reference value :  1.35001e-05
 Reference value :  1.35001e-05
 Reference value :  1.35001e-05
 Reference value :  1.35001e-05
 Reference value :  1.35002e-05
 Reference value :  1.35002e-05
 Reference value :  1.35004e-05
 Reference value :  1.35006e-05
 Reference value :  1.35011e-05
 Reference value :  1.35018e-05
 Reference value :  1.35025e-05
 Reference value :  1.35031e-05
 Reference value :  1.35039e-05
 Reference value :  1.35047e-05
 Reference value :  1.35056e-05
 Reference value :  1.35064e-05
 Reference value :  1.35072e-05
 Reference value :  1.35079e-05
 Reference value :  1.35087e-05
 Reference value :  1.35097e-05
 Reference value :  1.35107e-05
 Reference value :  1.35129e-05
 Reference value :  1.35151e-05
 Reference value :  1.35174e-05
 Reference value :  1.35195e-05
 Reference value :  1.35216e-05
 Reference value :  1.35240e-05
 Reference value :  1.35262e-05
 Reference value :  1.35279e-05
 Reference value :  1.35295e-05
 Reference value :  1.35311e-05
 Reference value :  1.35327e-05
 Reference value :  1.35346e-05
 Reference value :  1.35375e-05
 Reference value :  1.35405e-05
 Reference value :  1.35445e-05
 Reference value :  1.35487e-05
 Reference value :  1.35532e-05
 Reference value :  1.35567e-05
 Reference value :  1.35602e-05
 Reference value :  1.35640e-05
 Reference value :  1.35679e-05
 Reference value :  1.35746e-05
 Reference value :  1.35831e-05
 Reference value :  1.35986e-05
 Reference value :  1.36236e-05
 Reference value :  1.36579e-05
 Reference value :  1.37097e-05
 Reference value :  1.37501e-05
 Reference value :  1.37501e-05
 Reference value :  1.37501e-05
 Reference value :  1.37502e-05
 Reference value :  1.37502e-05
 Reference value :  1.37502e-05
 Reference value :  1.37502e-05
 Reference value :  1.37502e-05
 Reference value :  1.37502e-05
 Reference value :  1.37502e-05
 Reference value :  1.37502e-05
 Reference value :  1.37503e-05
 Reference value :  1.37503e-05
 Reference value :  1.37504e-05
 Reference value :  1.37506e-05
 Reference value :  1.37508e-05
 Reference value :  1.37511e-05
 Reference value :  1.37517e-05
 Reference value :  1.37523e-05
 Reference value :  1.37530e-05
 Reference value :  1.37538e-05
 Reference value :  1.37547e-05
 Reference value :  1.37558e-05
 Reference value :  1.37565e-05
 Reference value :  1.37574e-05
 Reference value :  1.37584e-05
 Reference value :  1.37595e-05
 Reference value :  1.37607e-05
 Reference value :  1.37631e-05
 Reference value :  1.37662e-05
 Reference value :  1.37707e-05
 Reference value :  1.37768e-05
 Reference value :  1.37827e-05
 Reference value :  1.37883e-05
 Reference value :  1.37952e-05
 Reference value :  1.38017e-05
 Reference value :  1.38149e-05
 Reference value :  1.38348e-05
 Reference value :  1.38561e-05
 Reference value :  1.38744e-05
 Reference value :  1.38952e-05
 Reference value :  1.39234e-05
 Reference value :  1.39653e-05
 Reference value :  1.40000e-05
 Reference value :  1.40000e-05
 Reference value :  1.40000e-05
 Reference value :  1.40001e-05
 Reference value :  1.40001e-05
 Reference value :  1.40001e-05
 Reference value :  1.40001e-05
 Reference value :  1.40001e-05
 Reference value :  1.40001e-05
 Reference value :  1.40001e-05
 Reference value :  1.40001e-05
 Reference value :  1.40002e-05
 Reference value :  1.40002e-05
 Reference value :  1.40004e-05
 Reference value :  1.40006e-05
 Reference value :  1.40011e-05
 Reference value :  1.40018e-05
 Reference value :  1.40025e-05
 Reference value :  1.40031e-05
 Reference value :  1.40039e-05
 Reference value :  1.40048e-05
 Reference value :  1.40058e-05
 Reference value :  1.40067e-05
 Reference value :  1.40078e-05
 Reference value :  1.40092e-05
 Reference value :  1.40108e-05
 Reference value :  1.40123e-05
 Reference value :  1.40137e-05
 Reference value :  1.40152e-05
 Reference value :  1.40169e-05
 Reference value :  1.40186e-05
 Reference value :  1.40221e-05
 Reference value :  1.40270e-05
 Reference value :  1.40367e-05
 Reference value :  1.40540e-05
 Reference value :  1.40853e-05
 Reference value :  1.41460e-05
 Reference value :  1.42501e-05
 Reference value :  1.42501e-05
 Reference value :  1.42501e-05
 Reference value :  1.42502e-05
 Reference value :  1.42502e-05
 Reference value :  1.42502e-05
 Reference value :  1.42502e-05
 Reference value :  1.42502e-05
 Reference value :  1.42502e-05
 Reference value :  1.42502e-05
 Reference value :  1.42502e-05
 Reference value :  1.42503e-05
 Reference value :  1.42503e-05
 Reference value :  1.42504e-05
 Reference value :  1.42506e-05
 Reference value :  1.42508e-05
 Reference value :  1.42511e-05
 Reference value :  1.42517e-05
 Reference value :  1.42523e-05
 Reference value :  1.42530e-05
 Reference value :  1.42538e-05
 Reference value :  1.42547e-05
 Reference value :  1.42557e-05
 Reference value :  1.42565e-05
 Reference value :  1.42574e-05
 Reference value :  1.42584e-05
 Reference value :  1.42593e-05
 Reference value :  1.42604e-05
 Reference value :  1.42616e-05
 Reference value :  1.42631e-05
 Reference value :  1.42647e-05
 Reference value :  1.42669e-05
 Reference value :  1.42693e-05
 Reference value :  1.42735e-05
 Reference value :  1.42811e-05
 Reference value :  1.42927e-05
 Reference value :  1.43141e-05
 Reference value :  1.43493e-05
 Reference value :  1.44100e-05
 Reference value :  1.45000e-05
 Reference value :  1.45000e-05
 Reference value :  1.45000e-05
 Reference value :  1.45001e-05
 Reference value :  1.45001e-05
 Reference value :  1.45001e-05
 Reference value :  1.45001e-05
 Reference value :  1.45001e-05
 Reference value :  1.45001e-05
 Reference value :  1.45001e-05
 Reference value :  1.45001e-05
 Reference value :  1.45002e-05
 Reference value :  1.45002e-05
 Reference value :  1.45004e-05
 Reference value :  1.45006e-05
 Reference value :  1.45011e-05
 Reference value :  1.45018e-05
 Reference value :  1.45025e-05
 Reference value :  1.45031e-05
 Reference value :  1.45039e-05
 Reference value :  1.45048e-05
 Reference value :  1.45057e-05
 Reference value :  1.45067e-05
 Reference value :  1.45076e-05
 Reference value :  1.45085e-05
 Reference value :  1.45096e-05
 Reference value :  1.45108e-05
 Reference value :  1.45120e-05
 Reference value :  1.45144e-05
 Reference value :  1.45170e-05
 Reference value :  1.45189e-05
 Reference value :  1.45210e-05
 Reference value :  1.45233e-05
 Reference value :  1.45259e-05
 Reference value :  1.45280e-05
 Reference value :  1.45295e-05
 Reference value :  1.45312e-05
 Reference value :  1.45330e-05
 Reference value :  1.45344e-05
 Reference value :  1.45358e-05
 Reference value :  1.45372e-05
 Reference value :  1.45388e-05
 Reference value :  1.45407e-05
 Reference value :  1.45441e-05
 Reference value :  1.45486e-05
 Reference value :  1.45563e-05
 Reference value :  1.45637e-05
 Reference value :  1.45761e-05
 Reference value :  1.45965e-05
 Reference value :  1.46362e-05
 Reference value :  1.46994e-05
 Reference value :  1.47501e-05
 Reference value :  1.47501e-05
 Reference value :  1.47501e-05
 Reference value :  1.47502e-05
 Reference value :  1.47502e-05
 Reference value :  1.47502e-05
 Reference value :  1.47502e-05
 Reference value :  1.47502e-05
 Reference value :  1.47502e-05
 Reference value :  1.47502e-05
 Reference value :  1.47502e-05
 Reference value :  1.47503e-05
 Reference value :  1.47503e-05
 Reference value :  1.47504e-05
 Reference value :  1.47506e-05
 Reference value :  1.47508e-05
 Reference value :  1.47511e-05
 Reference value :  1.47517e-05
 Reference value :  1.47523e-05
 Reference value :  1.47530e-05
 Reference value :  1.47537e-05
[...]
 Reference value :  2.68250e-04
 Reference value :  2.68250e-04
 Reference value :  2.68250e-04
 Reference value :  2.68250e-04
 Reference value :  2.68250e-04
 Reference value :  2.68250e-04
 Reference value :  2.68250e-04
 Reference value :  2.68250e-04
 Reference value :  2.68250e-04
 Reference value :  2.68250e-04
 Reference value :  2.68250e-04
 Reference value :  2.68250e-04
 Reference value :  2.68250e-04
 Reference value :  2.68250e-04
 Reference value :  2.68251e-04
 Reference value :  2.68251e-04
 Reference value :  2.68251e-04
 Reference value :  2.68252e-04
 Reference value :  2.68252e-04
 Reference value :  2.68253e-04
 Reference value :  2.68254e-04
 Reference value :  2.68255e-04
 Reference value :  2.68256e-04
 Reference value :  2.68256e-04
 Reference value :  2.68257e-04
 Reference value :  2.68258e-04
 Reference value :  2.68259e-04
 Reference value :  2.68260e-04
 Reference value :  2.68262e-04
 Reference value :  2.68263e-04
 Reference value :  2.68266e-04
 Reference value :  2.68268e-04
 Reference value :  2.68272e-04
 Reference value :  2.68277e-04
 Reference value :  2.68287e-04
 Reference value :  2.68308e-04
 Reference value :  2.68344e-04
 Reference value :  2.68382e-04
 Reference value :  2.68410e-04
 Reference value :  2.68428e-04
 Reference value :  2.68446e-04
 Reference value :  2.68464e-04
 Reference value :  2.68484e-04
 Reference value :  2.68500e-04
 Reference value :  2.68500e-04
 Reference value :  2.68500e-04
 Reference value :  2.68500e-04
 Reference value :  2.68500e-04
 Reference value :  2.68500e-04
 Reference value :  2.68500e-04
 Reference value :  2.68500e-04
 Reference value :  2.68500e-04
 Reference value :  2.68500e-04
 Reference value :  2.68500e-04
 Reference value :  2.68500e-04
 Reference value :  2.68500e-04
 Reference value :  2.68500e-04
 Reference value :  2.68501e-04
 Reference value :  2.68501e-04
 Reference value :  2.68502e-04
 Reference value :  2.68502e-04
 Reference value :  2.68503e-04
 Reference value :  2.68504e-04
 Reference value :  2.68505e-04
 Reference value :  2.68506e-04
 Reference value :  2.68506e-04
 Reference value :  2.68507e-04
 Reference value :  2.68508e-04
 Reference value :  2.68509e-04
 Reference value :  2.68510e-04
 Reference value :  2.68511e-04
 Reference value :  2.68513e-04
 Reference value :  2.68516e-04
 Reference value :  2.68519e-04
 Reference value :  2.68523e-04
 Reference value :  2.68526e-04
 Reference value :  2.68528e-04
 Reference value :  2.68531e-04
 Reference value :  2.68533e-04
 Reference value :  2.68536e-04
 Reference value :  2.68539e-04
 Reference value :  2.68542e-04
 Reference value :  2.68548e-04
 Reference value :  2.68555e-04
 Reference value :  2.68559e-04
 Reference value :  2.68564e-04
 Reference value :  2.68568e-04
 Reference value :  2.68573e-04
 Reference value :  2.68580e-04
 Reference value :  2.68587e-04
 Reference value :  2.68594e-04
 Reference value :  2.68603e-04
 Reference value :  2.68617e-04
 Reference value :  2.68635e-04
 Reference value :  2.68662e-04
 Reference value :  2.68699e-04
 Reference value :  2.68750e-04
 Reference value :  2.68750e-04
 Reference value :  2.68750e-04
 Reference value :  2.68750e-04
 Reference value :  2.68750e-04
 Reference value :  2.68750e-04
 Reference value :  2.68750e-04
 Reference value :  2.68750e-04
 Reference value :  2.68750e-04
 Reference value :  2.68750e-04
 Reference value :  2.68750e-04
 Reference value :  2.68750e-04
 Reference value :  2.68750e-04
 Reference value :  2.68750e-04
 Reference value :  2.68751e-04
 Reference value :  2.68751e-04
 Reference value :  2.68751e-04
 Reference value :  2.68752e-04
 Reference value :  2.68752e-04
 Reference value :  2.68753e-04
 Reference value :  2.68754e-04
 Reference value :  2.68755e-04
 Reference value :  2.68756e-04
 Reference value :  2.68757e-04
 Reference value :  2.68757e-04
 Reference value :  2.68758e-04
 Reference value :  2.68759e-04
 Reference value :  2.68761e-04
 Reference value :  2.68763e-04
 Reference value :  2.68766e-04
 Reference value :  2.68771e-04
 Reference value :  2.68779e-04
 Reference value :  2.68797e-04
 Reference value :  2.68831e-04
 Reference value :  2.68900e-04
 Reference value :  2.69000e-04
 Reference value :  2.69000e-04
 Reference value :  2.69000e-04
 Reference value :  2.69000e-04
 Reference value :  2.69000e-04
 Reference value :  2.69000e-04
 Reference value :  2.69000e-04
 Reference value :  2.69000e-04
 Reference value :  2.69000e-04
 Reference value :  2.69000e-04
 Reference value :  2.69000e-04
 Reference value :  2.69000e-04
 Reference value :  2.69000e-04
 Reference value :  2.69000e-04
 Reference value :  2.69001e-04
 Reference value :  2.69001e-04
 Reference value :  2.69002e-04
 Reference value :  2.69002e-04
 Reference value :  2.69003e-04
 Reference value :  2.69004e-04
 Reference value :  2.69005e-04
 Reference value :  2.69006e-04
 Reference value :  2.69007e-04
 Reference value :  2.69008e-04
 Reference value :  2.69009e-04
 Reference value :  2.69011e-04
 Reference value :  2.69012e-04
 Reference value :  2.69014e-04
 Reference value :  2.69015e-04
 Reference value :  2.69017e-04
 Reference value :  2.69019e-04
 Reference value :  2.69022e-04
 Reference value :  2.69027e-04
 Reference value :  2.69037e-04
 Reference value :  2.69054e-04
 Reference value :  2.69086e-04
 Reference value :  2.69148e-04
 Reference value :  2.69250e-04
 Reference value :  2.69250e-04
 Reference value :  2.69250e-04
 Reference value :  2.69250e-04
 Reference value :  2.69250e-04
 Reference value :  2.69250e-04
 Reference value :  2.69250e-04
 Reference value :  2.69250e-04
 Reference value :  2.69250e-04
 Reference value :  2.69250e-04
 Reference value :  2.69250e-04
 Reference value :  2.69250e-04
 Reference value :  2.69250e-04
 Reference value :  2.69250e-04
 Reference value :  2.69251e-04
 Reference value :  2.69251e-04
 Reference value :  2.69251e-04
 Reference value :  2.69252e-04
 Reference value :  2.69252e-04
 Reference value :  2.69253e-04
 Reference value :  2.69254e-04
 Reference value :  2.69255e-04
 Reference value :  2.69256e-04
 Reference value :  2.69256e-04
 Reference value :  2.69257e-04
 Reference value :  2.69258e-04
 Reference value :  2.69259e-04
 Reference value :  2.69260e-04
 Reference value :  2.69262e-04
 Reference value :  2.69263e-04
 Reference value :  2.69265e-04
 Reference value :  2.69267e-04
 Reference value :  2.69269e-04
 Reference value :  2.69273e-04
 Reference value :  2.69280e-04
 Reference value :  2.69290e-04
 Reference value :  2.69307e-04
 Reference value :  2.69334e-04
 Reference value :  2.69389e-04
 Reference value :  2.69498e-04
 Reference value :  2.69500e-04
 Reference value :  2.69500e-04
 Reference value :  2.69500e-04
 Reference value :  2.69500e-04
 Reference value :  2.69500e-04
 Reference value :  2.69500e-04
 Reference value :  2.69500e-04
 Reference value :  2.69500e-04
 Reference value :  2.69500e-04
 Reference value :  2.69500e-04
 Reference value :  2.69500e-04
 Reference value :  2.69500e-04
 Reference value :  2.69500e-04
 Reference value :  2.69500e-04
 Reference value :  2.69501e-04
 Reference value :  2.69501e-04
 Reference value :  2.69502e-04
 Reference value :  2.69502e-04
 Reference value :  2.69503e-04
 Reference value :  2.69504e-04
 Reference value :  2.69505e-04
 Reference value :  2.69506e-04
 Reference value :  2.69507e-04
 Reference value :  2.69508e-04
 Reference value :  2.69509e-04
 Reference value :  2.69510e-04
 Reference value :  2.69511e-04
 Reference value :  2.69512e-04
 Reference value :  2.69514e-04
 Reference value :  2.69517e-04
 Reference value :  2.69519e-04
 Reference value :  2.69521e-04
 Reference value :  2.69524e-04
 Reference value :  2.69526e-04
 Reference value :  2.69528e-04
 Reference value :  2.69529e-04
 Reference value :  2.69531e-04
 Reference value :  2.69533e-04
 Reference value :  2.69535e-04
 Reference value :  2.69537e-04
 Reference value :  2.69540e-04
 Reference value :  2.69544e-04
 Reference value :  2.69549e-04
 Reference value :  2.69555e-04
 Reference value :  2.69561e-04
 Reference value :  2.69570e-04
 Reference value :  2.69585e-04
 Reference value :  2.69606e-04
 Reference value :  2.69621e-04
 Reference value :  2.69637e-04
 Reference value :  2.69652e-04
 Reference value :  2.69671e-04
 Reference value :  2.69708e-04
 Reference value :  2.69750e-04
 Reference value :  2.69750e-04
 Reference value :  2.69750e-04
 Reference value :  2.69750e-04
 Reference value :  2.69750e-04
 Reference value :  2.69750e-04
 Reference value :  2.69750e-04
 Reference value :  2.69750e-04
 Reference value :  2.69750e-04
 Reference value :  2.69750e-04
 Reference value :  2.69750e-04
 Reference value :  2.69750e-04
 Reference value :  2.69750e-04
 Reference value :  2.69750e-04
 Reference value :  2.69751e-04
 Reference value :  2.69751e-04
 Reference value :  2.69751e-04
 Reference value :  2.69752e-04
 Reference value :  2.69752e-04
 Reference value :  2.69753e-04
 Reference value :  2.69754e-04
 Reference value :  2.69755e-04
 Reference value :  2.69756e-04
 Reference value :  2.69757e-04
 Reference value :  2.69758e-04
 Reference value :  2.69759e-04
 Reference value :  2.69760e-04
 Reference value :  2.69762e-04
 Reference value :  2.69764e-04
 Reference value :  2.69767e-04
 Reference value :  2.69773e-04
 Reference value :  2.69782e-04
 Reference value :  2.69798e-04
 Reference value :  2.69827e-04
 Reference value :  2.69884e-04
 Reference value :  2.69981e-04
 Reference value :  2.70000e-04
 Reference value :  2.70000e-04
 Reference value :  2.70000e-04
 Reference value :  2.70000e-04
 Reference value :  2.70000e-04
 Reference value :  2.70000e-04
 Reference value :  2.70000e-04
 Reference value :  2.70000e-04
 Reference value :  2.70000e-04
 Reference value :  2.70000e-04
 Reference value :  2.70000e-04
 Reference value :  2.70000e-04
 Reference value :  2.70000e-04
 Reference value :  2.70000e-04
 Reference value :  2.70001e-04
 Reference value :  2.70001e-04
 Reference value :  2.70002e-04
 Reference value :  2.70002e-04
 Reference value :  2.70003e-04
 Reference value :  2.70004e-04
 Reference value :  2.70005e-04
 Reference value :  2.70006e-04
 Reference value :  2.70007e-04
 Reference value :  2.70008e-04
 Reference value :  2.70009e-04
 Reference value :  2.70011e-04
 Reference value :  2.70013e-04
 Reference value :  2.70014e-04
 Reference value :  2.70016e-04
 Reference value :  2.70018e-04
 Reference value :  2.70020e-04
 Reference value :  2.70023e-04
 Reference value :  2.70028e-04
 Reference value :  2.70037e-04
 Reference value :  2.70052e-04
 Reference value :  2.70082e-04
 Reference value :  2.70136e-04
 Reference value :  2.70238e-04
 Reference value :  2.70250e-04
 Reference value :  2.70250e-04
 Reference value :  2.70250e-04
 Reference value :  2.70250e-04
 Reference value :  2.70250e-04
 Reference value :  2.70250e-04
 Reference value :  2.70250e-04
 Reference value :  2.70250e-04
 Reference value :  2.70250e-04
 Reference value :  2.70250e-04
 Reference value :  2.70250e-04
 Reference value :  2.70250e-04
 Reference value :  2.70250e-04
 Reference value :  2.70250e-04
 Reference value :  2.70251e-04
 Reference value :  2.70251e-04
 Reference value :  2.70251e-04
 Reference value :  2.70252e-04
 Reference value :  2.70252e-04
 Reference value :  2.70253e-04
 Reference value :  2.70254e-04
 Reference value :  2.70255e-04
 Reference value :  2.70256e-04
 Reference value :  2.70257e-04
 Reference value :  2.70258e-04
 Reference value :  2.70259e-04
 Reference value :  2.70260e-04
 Reference value :  2.70261e-04
 Reference value :  2.70262e-04
 Reference value :  2.70263e-04
 Reference value :  2.70265e-04
 Reference value :  2.70267e-04
 Reference value :  2.70270e-04
 Reference value :  2.70274e-04
 Reference value :  2.70281e-04
 Reference value :  2.70293e-04
 Reference value :  2.70318e-04
 Reference value :  2.70363e-04
 Reference value :  2.70454e-04
 Reference value :  2.70500e-04
 Reference value :  2.70500e-04
 Reference value :  2.70500e-04
 Reference value :  2.70500e-04
 Reference value :  2.70500e-04
 Reference value :  2.70500e-04
 Reference value :  2.70500e-04
 Reference value :  2.70500e-04
 Reference value :  2.70500e-04
 Reference value :  2.70500e-04
 Reference value :  2.70500e-04
 Reference value :  2.70500e-04
 Reference value :  2.70500e-04
 Reference value :  2.70500e-04
 Reference value :  2.70501e-04
 Reference value :  2.70501e-04
 Reference value :  2.70502e-04
 Reference value :  2.70502e-04
 Reference value :  2.70503e-04
 Reference value :  2.70504e-04
 Reference value :  2.70505e-04
 Reference value :  2.70506e-04
 Reference value :  2.70507e-04
 Reference value :  2.70507e-04
 Reference value :  2.70508e-04
 Reference value :  2.70509e-04
 Reference value :  2.70510e-04
 Reference value :  2.70511e-04
 Reference value :  2.70512e-04
 Reference value :  2.70515e-04
 Reference value :  2.70517e-04
 Reference value :  2.70519e-04
 Reference value :  2.70521e-04
 Reference value :  2.70523e-04
 Reference value :  2.70525e-04
 Reference value :  2.70527e-04
 Reference value :  2.70529e-04
 Reference value :  2.70530e-04
 Reference value :  2.70532e-04
 Reference value :  2.70533e-04
 Reference value :  2.70535e-04
 Reference value :  2.70537e-04
 Reference value :  2.70540e-04
 Reference value :  2.70543e-04
 Reference value :  2.70546e-04
 Reference value :  2.70552e-04
 Reference value :  2.70562e-04
 Reference value :  2.70580e-04
 Reference value :  2.70611e-04
 Reference value :  2.70663e-04
 Reference value :  2.70705e-04
 Reference value :  2.70739e-04
 Reference value :  2.70750e-04
 Reference value :  2.70750e-04
 Reference value :  2.70750e-04
 Reference value :  2.70750e-04
 Reference value :  2.70750e-04
 Reference value :  2.70750e-04
 Reference value :  2.70750e-04
 Reference value :  2.70750e-04
 Reference value :  2.70750e-04
 Reference value :  2.70750e-04
 Reference value :  2.70750e-04
 Reference value :  2.70750e-04
 Reference value :  2.70750e-04
 Reference value :  2.70750e-04
 Reference value :  2.70751e-04
 Reference value :  2.70751e-04
 Reference value :  2.70751e-04
 Reference value :  2.70752e-04
 Reference value :  2.70752e-04
 Reference value :  2.70753e-04
 Reference value :  2.70754e-04
 Reference value :  2.70755e-04
 Reference value :  2.70756e-04
 Reference value :  2.70757e-04
 Reference value :  2.70758e-04
 Reference value :  2.70759e-04
 Reference value :  2.70760e-04
 Reference value :  2.70762e-04
 Reference value :  2.70764e-04
 Reference value :  2.70768e-04
 Reference value :  2.70773e-04
 Reference value :  2.70785e-04
 Reference value :  2.70805e-04
 Reference value :  2.70842e-04
 Reference value :  2.70916e-04
 Reference value :  2.71000e-04
 Reference value :  2.71000e-04
 Reference value :  2.71000e-04
 Reference value :  2.71000e-04
 Reference value :  2.71000e-04
 Reference value :  2.71000e-04
 Reference value :  2.71000e-04
 Reference value :  2.71000e-04
 Reference value :  2.71000e-04
 Reference value :  2.71000e-04
 Reference value :  2.71000e-04
 Reference value :  2.71000e-04
 Reference value :  2.71000e-04
 Reference value :  2.71000e-04
 Reference value :  2.71001e-04
 Reference value :  2.71001e-04
 Reference value :  2.71002e-04
 Reference value :  2.71002e-04
 Reference value :  2.71003e-04
 Reference value :  2.71004e-04
 Reference value :  2.71005e-04
 Reference value :  2.71006e-04
 Reference value :  2.71007e-04
 Reference value :  2.71008e-04
 Reference value :  2.71009e-04
 Reference value :  2.71011e-04
 Reference value :  2.71013e-04
 Reference value :  2.71014e-04
 Reference value :  2.71016e-04
 Reference value :  2.71018e-04
 Reference value :  2.71020e-04
 Reference value :  2.71023e-04
 Reference value :  2.71028e-04
 Reference value :  2.71037e-04
 Reference value :  2.71051e-04
 Reference value :  2.71079e-04
 Reference value :  2.71127e-04
 Reference value :  2.71225e-04
 Reference value :  2.71250e-04
 Reference value :  2.71250e-04
 Reference value :  2.71250e-04
 Reference value :  2.71250e-04
 Reference value :  2.71250e-04
 Reference value :  2.71250e-04
 Reference value :  2.71250e-04
 Reference value :  2.71250e-04
 Reference value :  2.71250e-04
 Reference value :  2.71250e-04
 Reference value :  2.71250e-04
 Reference value :  2.71250e-04
 Reference value :  2.71250e-04
 Reference value :  2.71250e-04
 Reference value :  2.71251e-04
 Reference value :  2.71251e-04
 Reference value :  2.71251e-04
 Reference value :  2.71252e-04
 Reference value :  2.71252e-04
 Reference value :  2.71253e-04
 Reference value :  2.71254e-04
 Reference value :  2.71255e-04
 Reference value :  2.71256e-04
 Reference value :  2.71257e-04
 Reference value :  2.71258e-04
 Reference value :  2.71259e-04
 Reference value :  2.71260e-04
 Reference value :  2.71261e-04
 Reference value :  2.71262e-04
 Reference value :  2.71263e-04
 Reference value :  2.71265e-04
 Reference value :  2.71267e-04
 Reference value :  2.71270e-04
 Reference value :  2.71274e-04
 Reference value :  2.71281e-04
 Reference value :  2.71296e-04
 Reference value :  2.71320e-04
 Reference value :  2.71365e-04
 Reference value :  2.71449e-04
 Reference value :  2.71500e-04
 Reference value :  2.71500e-04
 Reference value :  2.71500e-04
 Reference value :  2.71500e-04
 Reference value :  2.71500e-04
 Reference value :  2.71500e-04
 Reference value :  2.71500e-04
 Reference value :  2.71500e-04
 Reference value :  2.71500e-04
 Reference value :  2.71500e-04
 Reference value :  2.71500e-04
 Reference value :  2.71500e-04
 Reference value :  2.71500e-04
 Reference value :  2.71500e-04
 Reference value :  2.71501e-04
 Reference value :  2.71501e-04
 Reference value :  2.71502e-04
 Reference value :  2.71502e-04
 Reference value :  2.71503e-04
 Reference value :  2.71504e-04
 Reference value :  2.71505e-04
 Reference value :  2.71506e-04
 Reference value :  2.71507e-04
 Reference value :  2.71507e-04
 Reference value :  2.71508e-04
 Reference value :  2.71509e-04
 Reference value :  2.71510e-04
 Reference value :  2.71512e-04
 Reference value :  2.71513e-04
 Reference value :  2.71514e-04
 Reference value :  2.71516e-04
 Reference value :  2.71517e-04
 Reference value :  2.71519e-04
 Reference value :  2.71520e-04
 Reference value :  2.71522e-04
 Reference value :  2.71525e-04
 Reference value :  2.71529e-04
 Reference value :  2.71533e-04
 Reference value :  2.71538e-04
 Reference value :  2.71544e-04
 Reference value :  2.71548e-04
 Reference value :  2.71552e-04
 Reference value :  2.71557e-04
 Reference value :  2.71563e-04
 Reference value :  2.71568e-04
 Reference value :  2.71578e-04
 Reference value :  2.71591e-04
 Reference value :  2.71611e-04
 Reference value :  2.71641e-04
 Reference value :  2.71686e-04
 Reference value :  2.71750e-04
 Reference value :  2.71750e-04
 Reference value :  2.71750e-04
 Reference value :  2.71750e-04
 Reference value :  2.71750e-04
 Reference value :  2.71750e-04
 Reference value :  2.71750e-04
 Reference value :  2.71750e-04
 Reference value :  2.71750e-04
 Reference value :  2.71750e-04
 Reference value :  2.71750e-04
 Reference value :  2.71750e-04
 Reference value :  2.71750e-04
 Reference value :  2.71750e-04
 Reference value :  2.71751e-04
 Reference value :  2.71751e-04
 Reference value :  2.71751e-04
 Reference value :  2.71752e-04
 Reference value :  2.71753e-04
 Reference value :  2.71753e-04
 Reference value :  2.71754e-04
 Reference value :  2.71755e-04
 Reference value :  2.71757e-04
 Reference value :  2.71758e-04
 Reference value :  2.71760e-04
 Reference value :  2.71762e-04
 Reference value :  2.71764e-04
 Reference value :  2.71768e-04
 Reference value :  2.71773e-04
 Reference value :  2.71782e-04
 Reference value :  2.71796e-04
 Reference value :  2.71824e-04
 Reference value :  2.71880e-04
 Reference value :  2.71984e-04
 Reference value :  2.72000e-04
No. of Data Rows : 43845
ngspice-44 done
