
Note: Compatibility modes selected: hs a


Circuit: ** sch_path: /home/madra/cace/sar-adc-using-sky130-pdk/runs/run_2025-09-03_22-44-54/parameters/dnl/run_0/sar_output_dnl.sch

option SCALE: Scale is set to 1e-06 for instance and model parameters
option SCALE: Scale is set to 1e-06 for instance and model parameters
option SCALE: Scale is set to 1e-06 for instance and model parameters
option SCALE: Scale is set to 1e-06 for instance and model parameters
Doing analysis at TEMP = 27.000000 and TNOM = 27.000000

Using KLU as Direct Linear Solver
Operating point simulation skipped by 'uic',
  now using transient initial conditions.
 Reference value :  1.00000e-12
 Reference value :  1.02387e-12
 Reference value :  1.07160e-12
 Reference value :  1.14212e-12
 Reference value :  1.22026e-12
 Reference value :  1.35927e-12
 Reference value :  1.57508e-12
 Reference value :  1.90714e-12
 Reference value :  2.54099e-12
 Reference value :  3.47552e-12
 Reference value :  4.89851e-12
 Reference value :  6.43049e-12
 Reference value :  8.78274e-12
 Reference value :  1.27952e-11
 Reference value :  1.81623e-11
 Reference value :  2.51130e-11
 Reference value :  3.40594e-11
 Reference value :  4.41236e-11
 Reference value :  5.97345e-11
 Reference value :  7.73926e-11
 Reference value :  1.00000e-10
 Reference value :  1.00441e-10
 Reference value :  1.01323e-10
 Reference value :  1.03088e-10
 Reference value :  1.06592e-10
 Reference value :  1.13599e-10
 Reference value :  1.27615e-10
 Reference value :  1.55645e-10
 Reference value :  1.93136e-10
 Reference value :  2.42491e-10
 Reference value :  3.12206e-10
 Reference value :  4.44240e-10
 Reference value :  6.74564e-10
 Reference value :  9.74198e-10
 Reference value :  1.39828e-09
 Reference value :  1.93077e-09
 Reference value :  2.67689e-09
 Reference value :  3.58103e-09
 Reference value :  4.54402e-09
 Reference value :  5.31000e-09
 Reference value :  6.17916e-09
 Reference value :  7.01021e-09
 Reference value :  7.89142e-09
 Reference value :  8.92717e-09
 Reference value :  1.00216e-08
 Reference value :  1.11690e-08
 Reference value :  1.25289e-08
 Reference value :  1.39017e-08
 Reference value :  1.51766e-08
 Reference value :  1.65473e-08
 Reference value :  1.77894e-08
 Reference value :  1.91149e-08
 Reference value :  2.07362e-08
 Reference value :  2.22294e-08
 Reference value :  2.34720e-08
 Reference value :  2.51542e-08
 Reference value :  2.67567e-08
 Reference value :  2.93999e-08
 Reference value :  3.22116e-08
 Reference value :  3.66151e-08
 Reference value :  4.24253e-08
 Reference value :  5.40457e-08
 Reference value :  7.56615e-08
 Reference value :  1.04875e-07
 Reference value :  1.48629e-07
 Reference value :  2.29031e-07
 Reference value :  2.50100e-07
 Reference value :  2.50110e-07
 Reference value :  2.50130e-07
 Reference value :  2.50170e-07
 Reference value :  2.50200e-07
 Reference value :  2.50201e-07
 Reference value :  2.50202e-07
 Reference value :  2.50204e-07
 Reference value :  2.50208e-07
 Reference value :  2.50216e-07
 Reference value :  2.50232e-07
 Reference value :  2.50265e-07
 Reference value :  2.50331e-07
 Reference value :  2.50414e-07
 Reference value :  2.50579e-07
 Reference value :  2.50745e-07
 Reference value :  2.51077e-07
 Reference value :  2.51464e-07
 Reference value :  2.52139e-07
 Reference value :  2.52794e-07
 Reference value :  2.53525e-07
 Reference value :  2.54494e-07
 Reference value :  2.55497e-07
 Reference value :  2.56523e-07
 Reference value :  2.57712e-07
 Reference value :  2.58782e-07
 Reference value :  2.60121e-07
 Reference value :  2.61344e-07
 Reference value :  2.63001e-07
 Reference value :  2.65887e-07
 Reference value :  2.69835e-07
 Reference value :  2.77626e-07
 Reference value :  2.91266e-07
 Reference value :  3.14999e-07
 Reference value :  3.59690e-07
 Reference value :  4.37645e-07
 Reference value :  5.00000e-07
 Reference value :  5.00010e-07
 Reference value :  5.00030e-07
 Reference value :  5.00070e-07
 Reference value :  5.00100e-07
 Reference value :  5.00101e-07
 Reference value :  5.00102e-07
 Reference value :  5.00104e-07
 Reference value :  5.00108e-07
 Reference value :  5.00116e-07
 Reference value :  5.00133e-07
 Reference value :  5.00166e-07
 Reference value :  5.00232e-07
 Reference value :  5.00364e-07
 Reference value :  5.00562e-07
 Reference value :  5.00958e-07
 Reference value :  5.01468e-07
 Reference value :  5.02005e-07
 Reference value :  5.02765e-07
 Reference value :  5.03572e-07
 Reference value :  5.04320e-07
 Reference value :  5.05131e-07
 Reference value :  5.06130e-07
 Reference value :  5.07172e-07
 Reference value :  5.08392e-07
 Reference value :  5.09756e-07
 Reference value :  5.11601e-07
 Reference value :  5.13517e-07
 Reference value :  5.15468e-07
 Reference value :  5.17394e-07
 Reference value :  5.19740e-07
 Reference value :  5.23779e-07
 Reference value :  5.26844e-07
 Reference value :  5.30508e-07
 Reference value :  5.34274e-07
 Reference value :  5.38199e-07
 Reference value :  5.44478e-07
 Reference value :  5.50230e-07
 Reference value :  5.60113e-07
 Reference value :  5.73009e-07
 Reference value :  5.98800e-07
 Reference value :  6.49214e-07
 Reference value :  7.34115e-07
 Reference value :  7.50100e-07
 Reference value :  7.50110e-07
 Reference value :  7.50130e-07
 Reference value :  7.50170e-07
 Reference value :  7.50200e-07
 Reference value :  7.50201e-07
 Reference value :  7.50202e-07
 Reference value :  7.50204e-07
 Reference value :  7.50208e-07
 Reference value :  7.50216e-07
 Reference value :  7.50233e-07
 Reference value :  7.50266e-07
 Reference value :  7.50333e-07
 Reference value :  7.50467e-07
 Reference value :  7.50644e-07
 Reference value :  7.50914e-07
 Reference value :  7.51453e-07
 Reference value :  7.52099e-07
 Reference value :  7.52800e-07
 Reference value :  7.53529e-07
 Reference value :  7.54426e-07
 Reference value :  7.55524e-07
 Reference value :  7.56676e-07
 Reference value :  7.57702e-07
 Reference value :  7.58796e-07
 Reference value :  7.59790e-07
 Reference value :  7.60838e-07
 Reference value :  7.62071e-07
 Reference value :  7.63367e-07
 Reference value :  7.64935e-07
 Reference value :  7.66859e-07
 Reference value :  7.69489e-07
 Reference value :  7.72562e-07
 Reference value :  7.77449e-07
 Reference value :  7.87223e-07
 Reference value :  8.04385e-07
 Reference value :  8.36277e-07
 Reference value :  8.96005e-07
 Reference value :  1.00000e-06
 Reference value :  1.00001e-06
 Reference value :  1.00003e-06
 Reference value :  1.00007e-06
 Reference value :  1.00010e-06
 Reference value :  1.00010e-06
 Reference value :  1.00010e-06
 Reference value :  1.00010e-06
 Reference value :  1.00011e-06
 Reference value :  1.00012e-06
 Reference value :  1.00013e-06
 Reference value :  1.00017e-06
 Reference value :  1.00023e-06
 Reference value :  1.00036e-06
 Reference value :  1.00056e-06
 Reference value :  1.00096e-06
 Reference value :  1.00147e-06
 Reference value :  1.00201e-06
 Reference value :  1.00276e-06
 Reference value :  1.00346e-06
 Reference value :  1.00420e-06
 Reference value :  1.00499e-06
 Reference value :  1.00587e-06
 Reference value :  1.00691e-06
 Reference value :  1.00768e-06
 Reference value :  1.00855e-06
 Reference value :  1.00939e-06
 Reference value :  1.01026e-06
 Reference value :  1.01144e-06
 Reference value :  1.01269e-06
 Reference value :  1.01520e-06
 Reference value :  1.01755e-06
 Reference value :  1.01942e-06
 Reference value :  1.02149e-06
 Reference value :  1.02430e-06
 Reference value :  1.02655e-06
 Reference value :  1.02857e-06
 Reference value :  1.03009e-06
 Reference value :  1.03149e-06
 Reference value :  1.03302e-06
 Reference value :  1.03459e-06
 Reference value :  1.03636e-06
 Reference value :  1.03917e-06
 Reference value :  1.04208e-06
 Reference value :  1.04790e-06
 Reference value :  1.05662e-06
 Reference value :  1.07107e-06
 Reference value :  1.09838e-06
 Reference value :  1.14369e-06
 Reference value :  1.22251e-06
 Reference value :  1.25010e-06
 Reference value :  1.25011e-06
 Reference value :  1.25013e-06
 Reference value :  1.25017e-06
 Reference value :  1.25020e-06
 Reference value :  1.25020e-06
 Reference value :  1.25020e-06
 Reference value :  1.25020e-06
 Reference value :  1.25021e-06
 Reference value :  1.25022e-06
 Reference value :  1.25023e-06
 Reference value :  1.25027e-06
 Reference value :  1.25033e-06
 Reference value :  1.25047e-06
 Reference value :  1.25064e-06
 Reference value :  1.25091e-06
 Reference value :  1.25145e-06
 Reference value :  1.25210e-06
 Reference value :  1.25288e-06
 Reference value :  1.25358e-06
 Reference value :  1.25455e-06
 Reference value :  1.25561e-06
 Reference value :  1.25652e-06
 Reference value :  1.25760e-06
 Reference value :  1.25871e-06
 Reference value :  1.25986e-06
 Reference value :  1.26136e-06
 Reference value :  1.26388e-06
 Reference value :  1.26734e-06
 Reference value :  1.27243e-06
 Reference value :  1.28263e-06
 Reference value :  1.29879e-06
 Reference value :  1.33070e-06
 Reference value :  1.39450e-06
 Reference value :  1.50000e-06
 Reference value :  1.50001e-06
 Reference value :  1.50003e-06
 Reference value :  1.50007e-06
 Reference value :  1.50010e-06
 Reference value :  1.50010e-06
 Reference value :  1.50010e-06
 Reference value :  1.50010e-06
 Reference value :  1.50011e-06
 Reference value :  1.50012e-06
 Reference value :  1.50013e-06
 Reference value :  1.50017e-06
 Reference value :  1.50023e-06
 Reference value :  1.50036e-06
 Reference value :  1.50056e-06
 Reference value :  1.50095e-06
 Reference value :  1.50146e-06
 Reference value :  1.50200e-06
 Reference value :  1.50275e-06
 Reference value :  1.50344e-06
 Reference value :  1.50417e-06
 Reference value :  1.50501e-06
 Reference value :  1.50593e-06
 Reference value :  1.50690e-06
 Reference value :  1.50791e-06
 Reference value :  1.50963e-06
 Reference value :  1.51119e-06
 Reference value :  1.51316e-06
 Reference value :  1.51475e-06
 Reference value :  1.51645e-06
 Reference value :  1.51871e-06
 Reference value :  1.52104e-06
 Reference value :  1.52494e-06
 Reference value :  1.53011e-06
 Reference value :  1.53821e-06
 Reference value :  1.55111e-06
 Reference value :  1.57404e-06
 Reference value :  1.61741e-06
 Reference value :  1.69497e-06
 Reference value :  1.75010e-06
 Reference value :  1.75011e-06
 Reference value :  1.75013e-06
 Reference value :  1.75017e-06
 Reference value :  1.75020e-06
 Reference value :  1.75020e-06
 Reference value :  1.75020e-06
 Reference value :  1.75020e-06
 Reference value :  1.75021e-06
 Reference value :  1.75022e-06
 Reference value :  1.75023e-06
 Reference value :  1.75027e-06
 Reference value :  1.75033e-06
 Reference value :  1.75047e-06
 Reference value :  1.75064e-06
 Reference value :  1.75091e-06
 Reference value :  1.75145e-06
 Reference value :  1.75210e-06
 Reference value :  1.75288e-06
 Reference value :  1.75358e-06
 Reference value :  1.75454e-06
 Reference value :  1.75561e-06
 Reference value :  1.75653e-06
 Reference value :  1.75762e-06
 Reference value :  1.75853e-06
 Reference value :  1.75951e-06
 Reference value :  1.76064e-06
 Reference value :  1.76188e-06
 Reference value :  1.76337e-06
 Reference value :  1.76496e-06
 Reference value :  1.76739e-06
 Reference value :  1.77000e-06
 Reference value :  1.77435e-06
 Reference value :  1.78304e-06
 Reference value :  1.79603e-06
 Reference value :  1.82144e-06
 Reference value :  1.86422e-06
 Reference value :  1.93984e-06
 Reference value :  2.00000e-06
 Reference value :  2.00001e-06
 Reference value :  2.00003e-06
 Reference value :  2.00007e-06
 Reference value :  2.00010e-06
 Reference value :  2.00010e-06
 Reference value :  2.00010e-06
 Reference value :  2.00010e-06
 Reference value :  2.00011e-06
 Reference value :  2.00012e-06
 Reference value :  2.00013e-06
 Reference value :  2.00017e-06
 Reference value :  2.00023e-06
 Reference value :  2.00036e-06
 Reference value :  2.00056e-06
 Reference value :  2.00095e-06
 Reference value :  2.00146e-06
 Reference value :  2.00200e-06
 Reference value :  2.00275e-06
 Reference value :  2.00345e-06
 Reference value :  2.00418e-06
 Reference value :  2.00498e-06
 Reference value :  2.00586e-06
 Reference value :  2.00661e-06
 Reference value :  2.00746e-06
 Reference value :  2.00819e-06
 Reference value :  2.00904e-06
 Reference value :  2.01011e-06
 Reference value :  2.01122e-06
 Reference value :  2.01323e-06
 Reference value :  2.01537e-06
 Reference value :  2.01761e-06
 Reference value :  2.01983e-06
 Reference value :  2.02193e-06
 Reference value :  2.02420e-06
 Reference value :  2.02602e-06
 Reference value :  2.02745e-06
 Reference value :  2.02898e-06
 Reference value :  2.03072e-06
 Reference value :  2.03260e-06
 Reference value :  2.03465e-06
 Reference value :  2.03766e-06
 Reference value :  2.04137e-06
 Reference value :  2.04879e-06
 Reference value :  2.05862e-06
 Reference value :  2.07639e-06
 Reference value :  2.09902e-06
 Reference value :  2.14427e-06
 Reference value :  2.21153e-06
 Reference value :  2.25010e-06
 Reference value :  2.25011e-06
 Reference value :  2.25013e-06
 Reference value :  2.25017e-06
 Reference value :  2.25020e-06
 Reference value :  2.25020e-06
 Reference value :  2.25020e-06
 Reference value :  2.25020e-06
 Reference value :  2.25021e-06
 Reference value :  2.25022e-06
 Reference value :  2.25023e-06
 Reference value :  2.25027e-06
 Reference value :  2.25033e-06
 Reference value :  2.25047e-06
 Reference value :  2.25064e-06
 Reference value :  2.25091e-06
 Reference value :  2.25145e-06
 Reference value :  2.25210e-06
 Reference value :  2.25288e-06
 Reference value :  2.25358e-06
 Reference value :  2.25454e-06
 Reference value :  2.25561e-06
 Reference value :  2.25657e-06
 Reference value :  2.25771e-06
 Reference value :  2.25878e-06
 Reference value :  2.26033e-06
 Reference value :  2.26244e-06
 Reference value :  2.26495e-06
 Reference value :  2.26889e-06
 Reference value :  2.27529e-06
 Reference value :  2.28633e-06
 Reference value :  2.30434e-06
 Reference value :  2.34036e-06
 Reference value :  2.39742e-06
 Reference value :  2.46066e-06
 Reference value :  2.50000e-06
 Reference value :  2.50001e-06
 Reference value :  2.50003e-06
 Reference value :  2.50007e-06
 Reference value :  2.50010e-06
 Reference value :  2.50010e-06
 Reference value :  2.50010e-06
 Reference value :  2.50010e-06
 Reference value :  2.50011e-06
 Reference value :  2.50012e-06
 Reference value :  2.50013e-06
 Reference value :  2.50017e-06
 Reference value :  2.50023e-06
 Reference value :  2.50036e-06
 Reference value :  2.50055e-06
 Reference value :  2.50091e-06
 Reference value :  2.50141e-06
 Reference value :  2.50194e-06
 Reference value :  2.50259e-06
 Reference value :  2.50328e-06
 Reference value :  2.50395e-06
 Reference value :  2.50471e-06
 Reference value :  2.50557e-06
 Reference value :  2.50642e-06
 Reference value :  2.50765e-06
 Reference value :  2.50889e-06
 Reference value :  2.51091e-06
 Reference value :  2.51240e-06
 Reference value :  2.51392e-06
 Reference value :  2.51550e-06
 Reference value :  2.51724e-06
 Reference value :  2.51903e-06
 Reference value :  2.52259e-06
 Reference value :  2.52726e-06
 Reference value :  2.53604e-06
 Reference value :  2.55141e-06
 Reference value :  2.57945e-06
 Reference value :  2.63553e-06
 Reference value :  2.74768e-06
 Reference value :  2.75010e-06
 Reference value :  2.75011e-06
 Reference value :  2.75013e-06
 Reference value :  2.75017e-06
 Reference value :  2.75020e-06
 Reference value :  2.75020e-06
 Reference value :  2.75020e-06
 Reference value :  2.75020e-06
 Reference value :  2.75021e-06
 Reference value :  2.75022e-06
 Reference value :  2.75023e-06
 Reference value :  2.75027e-06
 Reference value :  2.75033e-06
 Reference value :  2.75047e-06
 Reference value :  2.75064e-06
 Reference value :  2.75091e-06
 Reference value :  2.75145e-06
 Reference value :  2.75210e-06
 Reference value :  2.75287e-06
 Reference value :  2.75358e-06
 Reference value :  2.75456e-06
 Reference value :  2.75562e-06
 Reference value :  2.75658e-06
 Reference value :  2.75747e-06
 Reference value :  2.75843e-06
 Reference value :  2.75958e-06
 Reference value :  2.76082e-06
 Reference value :  2.76219e-06
 Reference value :  2.76377e-06
 Reference value :  2.76611e-06
 Reference value :  2.76872e-06
 Reference value :  2.77303e-06
 Reference value :  2.78000e-06
 Reference value :  2.79393e-06
 Reference value :  2.81838e-06
 Reference value :  2.86415e-06
 Reference value :  2.94974e-06
 Reference value :  3.00000e-06
 Reference value :  3.00001e-06
 Reference value :  3.00003e-06
 Reference value :  3.00007e-06
 Reference value :  3.00010e-06
 Reference value :  3.00010e-06
 Reference value :  3.00010e-06
 Reference value :  3.00010e-06
 Reference value :  3.00011e-06
 Reference value :  3.00012e-06
 Reference value :  3.00013e-06
 Reference value :  3.00017e-06
 Reference value :  3.00023e-06
 Reference value :  3.00036e-06
 Reference value :  3.00055e-06
 Reference value :  3.00091e-06
 Reference value :  3.00141e-06
 Reference value :  3.00194e-06
 Reference value :  3.00269e-06
 Reference value :  3.00338e-06
 Reference value :  3.00409e-06
 Reference value :  3.00486e-06
 Reference value :  3.00572e-06
 Reference value :  3.00652e-06
 Reference value :  3.00735e-06
 Reference value :  3.00811e-06
 Reference value :  3.00895e-06
 Reference value :  3.01008e-06
 Reference value :  3.01115e-06
 Reference value :  3.01303e-06
 Reference value :  3.01515e-06
 Reference value :  3.01680e-06
 Reference value :  3.01863e-06
 Reference value :  3.02048e-06
 Reference value :  3.02249e-06
 Reference value :  3.02397e-06
 Reference value :  3.02540e-06
 Reference value :  3.02673e-06
 Reference value :  3.02818e-06
 Reference value :  3.02987e-06
 Reference value :  3.03174e-06
 Reference value :  3.03449e-06
 Reference value :  3.03796e-06
 Reference value :  3.04491e-06
 Reference value :  3.05589e-06
 Reference value :  3.07259e-06
 Reference value :  3.10391e-06
 Reference value :  3.15512e-06
 Reference value :  3.21241e-06
 Reference value :  3.25010e-06
 Reference value :  3.25011e-06
 Reference value :  3.25013e-06
 Reference value :  3.25017e-06
 Reference value :  3.25020e-06
 Reference value :  3.25020e-06
 Reference value :  3.25020e-06
 Reference value :  3.25020e-06
 Reference value :  3.25021e-06
 Reference value :  3.25022e-06
 Reference value :  3.25023e-06
 Reference value :  3.25027e-06
 Reference value :  3.25033e-06
 Reference value :  3.25047e-06
 Reference value :  3.25064e-06
 Reference value :  3.25091e-06
 Reference value :  3.25145e-06
 Reference value :  3.25210e-06
 Reference value :  3.25287e-06
 Reference value :  3.25358e-06
 Reference value :  3.25455e-06
 Reference value :  3.25561e-06
 Reference value :  3.25651e-06
 Reference value :  3.25749e-06
 Reference value :  3.25848e-06
 Reference value :  3.25990e-06
 Reference value :  3.26138e-06
 Reference value :  3.26403e-06
 Reference value :  3.26738e-06
 Reference value :  3.27276e-06
 Reference value :  3.28352e-06
 Reference value :  3.29975e-06
 Reference value :  3.33220e-06
 Reference value :  3.39710e-06
 Reference value :  3.50000e-06
 Reference value :  3.50001e-06
 Reference value :  3.50003e-06
 Reference value :  3.50007e-06
 Reference value :  3.50010e-06
 Reference value :  3.50010e-06
 Reference value :  3.50010e-06
 Reference value :  3.50010e-06
 Reference value :  3.50011e-06
 Reference value :  3.50012e-06
 Reference value :  3.50013e-06
 Reference value :  3.50017e-06
 Reference value :  3.50023e-06
 Reference value :  3.50036e-06
 Reference value :  3.50055e-06
 Reference value :  3.50091e-06
 Reference value :  3.50141e-06
 Reference value :  3.50194e-06
 Reference value :  3.50269e-06
 Reference value :  3.50338e-06
 Reference value :  3.50410e-06
 Reference value :  3.50490e-06
 Reference value :  3.50579e-06
 Reference value :  3.50677e-06
 Reference value :  3.50802e-06
 Reference value :  3.50965e-06
 Reference value :  3.51115e-06
 Reference value :  3.51289e-06
 Reference value :  3.51453e-06
 Reference value :  3.51641e-06
 Reference value :  3.51820e-06
 Reference value :  3.52051e-06
 Reference value :  3.52403e-06
 Reference value :  3.52930e-06
 Reference value :  3.53843e-06
 Reference value :  3.55519e-06
 Reference value :  3.58487e-06
 Reference value :  3.64161e-06
 Reference value :  3.75010e-06
 Reference value :  3.75011e-06
 Reference value :  3.75013e-06
 Reference value :  3.75017e-06
 Reference value :  3.75020e-06
 Reference value :  3.75020e-06
 Reference value :  3.75020e-06
 Reference value :  3.75020e-06
 Reference value :  3.75021e-06
 Reference value :  3.75022e-06
 Reference value :  3.75023e-06
 Reference value :  3.75027e-06
 Reference value :  3.75033e-06
 Reference value :  3.75047e-06
 Reference value :  3.75064e-06
 Reference value :  3.75091e-06
 Reference value :  3.75145e-06
 Reference value :  3.75211e-06
 Reference value :  3.75288e-06
 Reference value :  3.75358e-06
 Reference value :  3.75455e-06
 Reference value :  3.75561e-06
 Reference value :  3.75651e-06
 Reference value :  3.75749e-06
 Reference value :  3.75842e-06
 Reference value :  3.75945e-06
 Reference value :  3.76061e-06
 Reference value :  3.76199e-06
 Reference value :  3.76345e-06
 Reference value :  3.76593e-06
 Reference value :  3.76847e-06
 Reference value :  3.77208e-06
 Reference value :  3.77721e-06
 Reference value :  3.78747e-06
 Reference value :  3.80799e-06
 Reference value :  3.84903e-06
 Reference value :  3.93112e-06
 Reference value :  4.00000e-06
 Reference value :  4.00001e-06
 Reference value :  4.00003e-06
 Reference value :  4.00007e-06
 Reference value :  4.00010e-06
 Reference value :  4.00010e-06
 Reference value :  4.00010e-06
 Reference value :  4.00010e-06
 Reference value :  4.00011e-06
 Reference value :  4.00012e-06
 Reference value :  4.00013e-06
 Reference value :  4.00017e-06
 Reference value :  4.00023e-06
 Reference value :  4.00036e-06
 Reference value :  4.00055e-06
 Reference value :  4.00091e-06
 Reference value :  4.00141e-06
 Reference value :  4.00194e-06
 Reference value :  4.00269e-06
 Reference value :  4.00337e-06
 Reference value :  4.00409e-06
 Reference value :  4.00487e-06
 Reference value :  4.00575e-06
 Reference value :  4.00648e-06
 Reference value :  4.00727e-06
 Reference value :  4.00802e-06
 Reference value :  4.00888e-06
 Reference value :  4.00970e-06
 Reference value :  4.01095e-06
 Reference value :  4.01209e-06
 Reference value :  4.01418e-06
 Reference value :  4.01639e-06
 Reference value :  4.01810e-06
 Reference value :  4.01998e-06
 Reference value :  4.02247e-06
 Reference value :  4.02454e-06
 Reference value :  4.02612e-06
 Reference value :  4.02759e-06
 Reference value :  4.02919e-06
 Reference value :  4.03083e-06
 Reference value :  4.03271e-06
 Reference value :  4.03582e-06
 Reference value :  4.03887e-06
 Reference value :  4.04497e-06
 Reference value :  4.05433e-06
 Reference value :  4.07008e-06
 Reference value :  4.08543e-06
 Reference value :  4.10056e-06
 Reference value :  4.10726e-06
 Reference value :  4.11372e-06
 Reference value :  4.12060e-06
 Reference value :  4.13345e-06
 Reference value :  4.14970e-06
 Reference value :  4.17767e-06
 Reference value :  4.21036e-06
 Reference value :  4.25010e-06
 Reference value :  4.25011e-06
 Reference value :  4.25013e-06
 Reference value :  4.25017e-06
 Reference value :  4.25020e-06
 Reference value :  4.25020e-06
 Reference value :  4.25020e-06
 Reference value :  4.25020e-06
 Reference value :  4.25021e-06
 Reference value :  4.25022e-06
 Reference value :  4.25023e-06
 Reference value :  4.25027e-06
 Reference value :  4.25033e-06
 Reference value :  4.25042e-06
 Reference value :  4.25058e-06
 Reference value :  4.25077e-06
 Reference value :  4.25109e-06
 Reference value :  4.25172e-06
 Reference value :  4.25234e-06
 Reference value :  4.25304e-06
 Reference value :  4.25378e-06
 Reference value :  4.25472e-06
 Reference value :  4.25556e-06
 Reference value :  4.25650e-06
 Reference value :  4.25744e-06
 Reference value :  4.25841e-06
 Reference value :  4.25998e-06
 Reference value :  4.26157e-06
 Reference value :  4.26421e-06
 Reference value :  4.26765e-06
 Reference value :  4.27319e-06
 Reference value :  4.28426e-06
 Reference value :  4.30640e-06
 Reference value :  4.35069e-06
 Reference value :  4.43926e-06
 Reference value :  4.50000e-06
 Reference value :  4.50001e-06
 Reference value :  4.50003e-06
 Reference value :  4.50007e-06
 Reference value :  4.50010e-06
 Reference value :  4.50010e-06
 Reference value :  4.50010e-06
 Reference value :  4.50010e-06
 Reference value :  4.50011e-06
 Reference value :  4.50012e-06
 Reference value :  4.50013e-06
 Reference value :  4.50017e-06
 Reference value :  4.50023e-06
 Reference value :  4.50036e-06
 Reference value :  4.50062e-06
 Reference value :  4.50109e-06
 Reference value :  4.50174e-06
 Reference value :  4.50246e-06
 Reference value :  4.50308e-06
 Reference value :  4.50385e-06
 Reference value :  4.50470e-06
 Reference value :  4.50557e-06
 Reference value :  4.50646e-06
 Reference value :  4.50746e-06
 Reference value :  4.50877e-06
 Reference value :  4.51038e-06
 Reference value :  4.51159e-06
 Reference value :  4.51297e-06
 Reference value :  4.51454e-06
 Reference value :  4.51624e-06
 Reference value :  4.51793e-06
 Reference value :  4.52132e-06
 Reference value :  4.52811e-06
 Reference value :  4.54168e-06
 Reference value :  4.56882e-06
 Reference value :  4.62309e-06
 Reference value :  4.73164e-06
 Reference value :  4.75010e-06
 Reference value :  4.75011e-06
 Reference value :  4.75013e-06
 Reference value :  4.75017e-06
 Reference value :  4.75020e-06
 Reference value :  4.75020e-06
 Reference value :  4.75020e-06
 Reference value :  4.75020e-06
 Reference value :  4.75021e-06
 Reference value :  4.75022e-06
 Reference value :  4.75023e-06
 Reference value :  4.75027e-06
 Reference value :  4.75033e-06
 Reference value :  4.75042e-06
 Reference value :  4.75058e-06
 Reference value :  4.75077e-06
 Reference value :  4.75108e-06
 Reference value :  4.75171e-06
 Reference value :  4.75233e-06
 Reference value :  4.75303e-06
 Reference value :  4.75376e-06
 Reference value :  4.75471e-06
 Reference value :  4.75554e-06
 Reference value :  4.75647e-06
 Reference value :  4.75729e-06
 Reference value :  4.75819e-06
 Reference value :  4.75919e-06
 Reference value :  4.76035e-06
 Reference value :  4.76267e-06
 Reference value :  4.76561e-06
 Reference value :  4.76986e-06
 Reference value :  4.77700e-06
 Reference value :  4.79130e-06
 Reference value :  4.81989e-06
 Reference value :  4.87706e-06
 Reference value :  4.99142e-06
 Reference value :  5.00000e-06
 Reference value :  5.00001e-06
 Reference value :  5.00003e-06
 Reference value :  5.00007e-06
 Reference value :  5.00010e-06
 Reference value :  5.00010e-06
 Reference value :  5.00010e-06
 Reference value :  5.00010e-06
 Reference value :  5.00011e-06
 Reference value :  5.00012e-06
 Reference value :  5.00013e-06
 Reference value :  5.00017e-06
 Reference value :  5.00023e-06
 Reference value :  5.00036e-06
 Reference value :  5.00062e-06
 Reference value :  5.00109e-06
 Reference value :  5.00174e-06
 Reference value :  5.00246e-06
 Reference value :  5.00309e-06
 Reference value :  5.00386e-06
 Reference value :  5.00482e-06
 Reference value :  5.00568e-06
 Reference value :  5.00649e-06
 Reference value :  5.00735e-06
 Reference value :  5.00814e-06
 Reference value :  5.00900e-06
 Reference value :  5.01017e-06
 Reference value :  5.01139e-06
 Reference value :  5.01384e-06
 Reference value :  5.01640e-06
 Reference value :  5.01953e-06
 Reference value :  5.02294e-06
 Reference value :  5.02644e-06
 Reference value :  5.02896e-06
 Reference value :  5.03132e-06
 Reference value :  5.03399e-06
 Reference value :  5.03662e-06
 Reference value :  5.03928e-06
 Reference value :  5.04315e-06
 Reference value :  5.04764e-06
 Reference value :  5.05405e-06
 Reference value :  5.06311e-06
 Reference value :  5.07609e-06
 Reference value :  5.08806e-06
 Reference value :  5.10075e-06
 Reference value :  5.11027e-06
 Reference value :  5.12067e-06
 Reference value :  5.12920e-06
 Reference value :  5.13745e-06
 Reference value :  5.14445e-06
 Reference value :  5.15328e-06
 Reference value :  5.17094e-06
 Reference value :  5.19637e-06
 Reference value :  5.24073e-06
 Reference value :  5.25010e-06
 Reference value :  5.25011e-06
 Reference value :  5.25013e-06
 Reference value :  5.25017e-06
 Reference value :  5.25020e-06
 Reference value :  5.25020e-06
 Reference value :  5.25020e-06
 Reference value :  5.25020e-06
 Reference value :  5.25021e-06
 Reference value :  5.25022e-06
 Reference value :  5.25023e-06
 Reference value :  5.25027e-06
 Reference value :  5.25033e-06
 Reference value :  5.25042e-06
 Reference value :  5.25058e-06
 Reference value :  5.25076e-06
 Reference value :  5.25108e-06
 Reference value :  5.25172e-06
 Reference value :  5.25234e-06
 Reference value :  5.25304e-06
 Reference value :  5.25378e-06
 Reference value :  5.25473e-06
 Reference value :  5.25576e-06
 Reference value :  5.25651e-06
 Reference value :  5.25740e-06
 Reference value :  5.25835e-06
 Reference value :  5.25949e-06
 Reference value :  5.26069e-06
 Reference value :  5.26311e-06
 Reference value :  5.26621e-06
 Reference value :  5.27072e-06
 Reference value :  5.27931e-06
 Reference value :  5.29650e-06
 Reference value :  5.33086e-06
 Reference value :  5.39959e-06
 Reference value :  5.50000e-06
 Reference value :  5.50001e-06
 Reference value :  5.50003e-06
 Reference value :  5.50007e-06
 Reference value :  5.50010e-06
 Reference value :  5.50010e-06
 Reference value :  5.50010e-06
 Reference value :  5.50010e-06
 Reference value :  5.50011e-06
 Reference value :  5.50012e-06
 Reference value :  5.50013e-06
 Reference value :  5.50017e-06
 Reference value :  5.50023e-06
 Reference value :  5.50036e-06
 Reference value :  5.50062e-06
 Reference value :  5.50109e-06
 Reference value :  5.50174e-06
 Reference value :  5.50246e-06
 Reference value :  5.50308e-06
 Reference value :  5.50385e-06
 Reference value :  5.50481e-06
 Reference value :  5.50576e-06
 Reference value :  5.50670e-06
 Reference value :  5.50784e-06
 Reference value :  5.50927e-06
 Reference value :  5.51087e-06
 Reference value :  5.51235e-06
 Reference value :  5.51371e-06
 Reference value :  5.51521e-06
 Reference value :  5.51711e-06
 Reference value :  5.51883e-06
 Reference value :  5.52229e-06
 Reference value :  5.52728e-06
 Reference value :  5.53628e-06
 Reference value :  5.55427e-06
 Reference value :  5.58504e-06
 Reference value :  5.64657e-06
 Reference value :  5.75010e-06
 Reference value :  5.75011e-06
 Reference value :  5.75013e-06
 Reference value :  5.75017e-06
 Reference value :  5.75020e-06
 Reference value :  5.75020e-06
 Reference value :  5.75020e-06
 Reference value :  5.75020e-06
 Reference value :  5.75021e-06
 Reference value :  5.75022e-06
 Reference value :  5.75023e-06
 Reference value :  5.75027e-06
 Reference value :  5.75033e-06
 Reference value :  5.75041e-06
 Reference value :  5.75058e-06
 Reference value :  5.75077e-06
 Reference value :  5.75108e-06
 Reference value :  5.75170e-06
 Reference value :  5.75233e-06
 Reference value :  5.75303e-06
 Reference value :  5.75376e-06
 Reference value :  5.75470e-06
 Reference value :  5.75573e-06
 Reference value :  5.75649e-06
 Reference value :  5.75736e-06
 Reference value :  5.75836e-06
 Reference value :  5.75928e-06
 Reference value :  5.76039e-06
 Reference value :  5.76161e-06
 Reference value :  5.76313e-06
 Reference value :  5.76469e-06
 Reference value :  5.76690e-06
 Reference value :  5.76938e-06
 Reference value :  5.77360e-06
 Reference value :  5.78156e-06
 Reference value :  5.79370e-06
 Reference value :  5.81668e-06
 Reference value :  5.85503e-06
 Reference value :  5.92219e-06
 Reference value :  6.00000e-06
 Reference value :  6.00001e-06
 Reference value :  6.00003e-06
 Reference value :  6.00007e-06
 Reference value :  6.00010e-06
 Reference value :  6.00010e-06
 Reference value :  6.00010e-06
 Reference value :  6.00010e-06
 Reference value :  6.00011e-06
 Reference value :  6.00012e-06
 Reference value :  6.00013e-06
 Reference value :  6.00017e-06
 Reference value :  6.00023e-06
 Reference value :  6.00036e-06
 Reference value :  6.00062e-06
 Reference value :  6.00109e-06
 Reference value :  6.00174e-06
 Reference value :  6.00246e-06
 Reference value :  6.00309e-06
 Reference value :  6.00385e-06
 Reference value :  6.00482e-06
 Reference value :  6.00571e-06
 Reference value :  6.00666e-06
 Reference value :  6.00761e-06
 Reference value :  6.00855e-06
 Reference value :  6.00956e-06
 Reference value :  6.01080e-06
 Reference value :  6.01201e-06
 Reference value :  6.01443e-06
 Reference value :  6.01700e-06
 Reference value :  6.01890e-06
 Reference value :  6.02104e-06
 Reference value :  6.02338e-06
 Reference value :  6.02593e-06
 Reference value :  6.02800e-06
 Reference value :  6.02950e-06
 Reference value :  6.03116e-06
 Reference value :  6.03299e-06
 Reference value :  6.03506e-06
 Reference value :  6.03720e-06
 Reference value :  6.04028e-06
 Reference value :  6.04470e-06
 Reference value :  6.04964e-06
 Reference value :  6.05542e-06
 Reference value :  6.06246e-06
 Reference value :  6.07290e-06
 Reference value :  6.09067e-06
 Reference value :  6.12361e-06
 Reference value :  6.17615e-06
 Reference value :  6.25010e-06
 Reference value :  6.25011e-06
 Reference value :  6.25013e-06
 Reference value :  6.25017e-06
 Reference value :  6.25020e-06
 Reference value :  6.25020e-06
 Reference value :  6.25020e-06
 Reference value :  6.25020e-06
 Reference value :  6.25021e-06
 Reference value :  6.25022e-06
 Reference value :  6.25023e-06
 Reference value :  6.25027e-06
 Reference value :  6.25033e-06
 Reference value :  6.25041e-06
 Reference value :  6.25058e-06
 Reference value :  6.25076e-06
 Reference value :  6.25106e-06
 Reference value :  6.25165e-06
 Reference value :  6.25229e-06
 Reference value :  6.25299e-06
 Reference value :  6.25371e-06
 Reference value :  6.25464e-06
 Reference value :  6.25565e-06
 Reference value :  6.25692e-06
 Reference value :  6.25795e-06
 Reference value :  6.25904e-06
 Reference value :  6.26023e-06
 Reference value :  6.26206e-06
 Reference value :  6.26387e-06
 Reference value :  6.26742e-06
 Reference value :  6.27257e-06
 Reference value :  6.28152e-06
 Reference value :  6.29835e-06
 Reference value :  6.32698e-06
 Reference value :  6.38424e-06
 Reference value :  6.49876e-06
 Reference value :  6.50000e-06
 Reference value :  6.50001e-06
 Reference value :  6.50003e-06
 Reference value :  6.50007e-06
 Reference value :  6.50010e-06
 Reference value :  6.50010e-06
 Reference value :  6.50010e-06
 Reference value :  6.50010e-06
 Reference value :  6.50011e-06
 Reference value :  6.50012e-06
 Reference value :  6.50013e-06
 Reference value :  6.50017e-06
 Reference value :  6.50023e-06
 Reference value :  6.50036e-06
 Reference value :  6.50062e-06
 Reference value :  6.50109e-06
 Reference value :  6.50174e-06
 Reference value :  6.50246e-06
 Reference value :  6.50308e-06
 Reference value :  6.50385e-06
 Reference value :  6.50480e-06
 Reference value :  6.50576e-06
 Reference value :  6.50669e-06
 Reference value :  6.50774e-06
 Reference value :  6.50885e-06
 Reference value :  6.51078e-06
 Reference value :  6.51257e-06
 Reference value :  6.51403e-06
 Reference value :  6.51565e-06
 Reference value :  6.51747e-06
 Reference value :  6.51945e-06
 Reference value :  6.52302e-06
 Reference value :  6.52795e-06
 Reference value :  6.53708e-06
 Reference value :  6.55219e-06
 Reference value :  6.58242e-06
 Reference value :  6.63726e-06
 Reference value :  6.74170e-06
 Reference value :  6.75010e-06
 Reference value :  6.75011e-06
 Reference value :  6.75013e-06
 Reference value :  6.75017e-06
 Reference value :  6.75020e-06
 Reference value :  6.75020e-06
 Reference value :  6.75020e-06
 Reference value :  6.75020e-06
 Reference value :  6.75021e-06
 Reference value :  6.75022e-06
 Reference value :  6.75023e-06
 Reference value :  6.75027e-06
 Reference value :  6.75033e-06
 Reference value :  6.75041e-06
 Reference value :  6.75058e-06
 Reference value :  6.75080e-06
 Reference value :  6.75107e-06
 Reference value :  6.75163e-06
 Reference value :  6.75225e-06
 Reference value :  6.75292e-06
 Reference value :  6.75364e-06
 Reference value :  6.75457e-06
 Reference value :  6.75558e-06
 Reference value :  6.75681e-06
 Reference value :  6.75777e-06
 Reference value :  6.75881e-06
 Reference value :  6.75984e-06
 Reference value :  6.76095e-06
 Reference value :  6.76217e-06
 Reference value :  6.76348e-06
 Reference value :  6.76497e-06
 Reference value :  6.76746e-06
 Reference value :  6.77013e-06
 Reference value :  6.77422e-06
 Reference value :  6.78052e-06
 Reference value :  6.79314e-06
 Reference value :  6.81807e-06
 Reference value :  6.86332e-06
 Reference value :  6.95381e-06
 Reference value :  7.00000e-06
 Reference value :  7.00001e-06
 Reference value :  7.00003e-06
 Reference value :  7.00007e-06
 Reference value :  7.00010e-06
 Reference value :  7.00010e-06
 Reference value :  7.00010e-06
 Reference value :  7.00010e-06
 Reference value :  7.00011e-06
 Reference value :  7.00012e-06
 Reference value :  7.00013e-06
 Reference value :  7.00017e-06
 Reference value :  7.00023e-06
 Reference value :  7.00036e-06
 Reference value :  7.00062e-06
 Reference value :  7.00109e-06
 Reference value :  7.00174e-06
 Reference value :  7.00246e-06
 Reference value :  7.00308e-06
 Reference value :  7.00385e-06
 Reference value :  7.00481e-06
 Reference value :  7.00571e-06
 Reference value :  7.00665e-06
 Reference value :  7.00738e-06
 Reference value :  7.00823e-06
 Reference value :  7.00909e-06
 Reference value :  7.00995e-06
 Reference value :  7.01104e-06
 Reference value :  7.01222e-06
 Reference value :  7.01456e-06
 Reference value :  7.01757e-06
 Reference value :  7.01960e-06
 Reference value :  7.02191e-06
 Reference value :  7.02394e-06
 Reference value :  7.02617e-06
 Reference value :  7.02806e-06
 Reference value :  7.02999e-06
 Reference value :  7.03173e-06
 Reference value :  7.03355e-06
 Reference value :  7.03583e-06
 Reference value :  7.03821e-06
 Reference value :  7.04160e-06
 Reference value :  7.04629e-06
 Reference value :  7.05313e-06
 Reference value :  7.06374e-06
 Reference value :  7.07325e-06
 Reference value :  7.08201e-06
 Reference value :  7.09175e-06
 Reference value :  7.10103e-06
 Reference value :  7.11059e-06
 Reference value :  7.12732e-06
 Reference value :  7.14253e-06
 Reference value :  7.16118e-06
 Reference value :  7.19847e-06
 Reference value :  7.25010e-06
 Reference value :  7.25011e-06
 Reference value :  7.25013e-06
 Reference value :  7.25017e-06
 Reference value :  7.25020e-06
 Reference value :  7.25020e-06
 Reference value :  7.25020e-06
 Reference value :  7.25020e-06
 Reference value :  7.25021e-06
 Reference value :  7.25022e-06
 Reference value :  7.25023e-06
 Reference value :  7.25027e-06
 Reference value :  7.25033e-06
 Reference value :  7.25042e-06
 Reference value :  7.25059e-06
 Reference value :  7.25077e-06
 Reference value :  7.25107e-06
 Reference value :  7.25168e-06
 Reference value :  7.25230e-06
 Reference value :  7.25299e-06
 Reference value :  7.25372e-06
 Reference value :  7.25465e-06
 Reference value :  7.25567e-06
 Reference value :  7.25662e-06
 Reference value :  7.25772e-06
 Reference value :  7.25884e-06
 Reference value :  7.25995e-06
 Reference value :  7.26171e-06
 Reference value :  7.26367e-06
 Reference value :  7.26734e-06
 Reference value :  7.27240e-06
 Reference value :  7.28254e-06
 Reference value :  7.30112e-06
 Reference value :  7.33642e-06
 Reference value :  7.40702e-06
 Reference value :  7.50000e-06
 Reference value :  7.50001e-06
 Reference value :  7.50003e-06
 Reference value :  7.50007e-06
 Reference value :  7.50010e-06
 Reference value :  7.50010e-06
 Reference value :  7.50010e-06
 Reference value :  7.50010e-06
 Reference value :  7.50011e-06
 Reference value :  7.50012e-06
 Reference value :  7.50013e-06
 Reference value :  7.50017e-06
 Reference value :  7.50023e-06
 Reference value :  7.50036e-06
 Reference value :  7.50062e-06
 Reference value :  7.50109e-06
 Reference value :  7.50171e-06
 Reference value :  7.50245e-06
 Reference value :  7.50308e-06
 Reference value :  7.50384e-06
 Reference value :  7.50479e-06
 Reference value :  7.50576e-06
 Reference value :  7.50668e-06
 Reference value :  7.50785e-06
 Reference value :  7.50906e-06
 Reference value :  7.51093e-06
 Reference value :  7.51293e-06
 Reference value :  7.51465e-06
 Reference value :  7.51645e-06
 Reference value :  7.51877e-06
 Reference value :  7.52119e-06
 Reference value :  7.52528e-06
 Reference value :  7.53096e-06
 Reference value :  7.54039e-06
 Reference value :  7.55658e-06
 Reference value :  7.58273e-06
 Reference value :  7.63081e-06
 Reference value :  7.71725e-06
 Reference value :  7.75010e-06
 Reference value :  7.75011e-06
 Reference value :  7.75013e-06
 Reference value :  7.75017e-06
 Reference value :  7.75020e-06
 Reference value :  7.75020e-06
 Reference value :  7.75020e-06
 Reference value :  7.75020e-06
 Reference value :  7.75021e-06
 Reference value :  7.75022e-06
 Reference value :  7.75023e-06
 Reference value :  7.75027e-06
 Reference value :  7.75033e-06
 Reference value :  7.75042e-06
 Reference value :  7.75059e-06
 Reference value :  7.75082e-06
 Reference value :  7.75109e-06
 Reference value :  7.75165e-06
 Reference value :  7.75226e-06
 Reference value :  7.75292e-06
 Reference value :  7.75365e-06
 Reference value :  7.75457e-06
 Reference value :  7.75558e-06
 Reference value :  7.75658e-06
 Reference value :  7.75763e-06
 Reference value :  7.75858e-06
 Reference value :  7.75957e-06
 Reference value :  7.76064e-06
 Reference value :  7.76189e-06
 Reference value :  7.76437e-06
 Reference value :  7.76854e-06
 Reference value :  7.77498e-06
 Reference value :  7.78786e-06
 Reference value :  7.81362e-06
 Reference value :  7.86514e-06
 Reference value :  7.96818e-06
 Reference value :  8.00000e-06
 Reference value :  8.00001e-06
 Reference value :  8.00003e-06
 Reference value :  8.00007e-06
 Reference value :  8.00010e-06
 Reference value :  8.00010e-06
 Reference value :  8.00010e-06
 Reference value :  8.00010e-06
 Reference value :  8.00011e-06
 Reference value :  8.00012e-06
 Reference value :  8.00013e-06
 Reference value :  8.00017e-06
 Reference value :  8.00023e-06
 Reference value :  8.00036e-06
 Reference value :  8.00062e-06
 Reference value :  8.00109e-06
 Reference value :  8.00171e-06
 Reference value :  8.00245e-06
 Reference value :  8.00308e-06
 Reference value :  8.00385e-06
 Reference value :  8.00482e-06
 Reference value :  8.00575e-06
 Reference value :  8.00670e-06
 Reference value :  8.00756e-06
 Reference value :  8.00851e-06
 Reference value :  8.00954e-06
 Reference value :  8.01070e-06
 Reference value :  8.01243e-06
 Reference value :  8.01396e-06
 Reference value :  8.01557e-06
 Reference value :  8.01724e-06
 Reference value :  8.01905e-06
 Reference value :  8.02268e-06
 Reference value :  8.02811e-06
 Reference value :  8.03699e-06
 Reference value :  8.05476e-06
 Reference value :  8.09029e-06
 Reference value :  8.16136e-06
 Reference value :  8.25010e-06
 Reference value :  8.25011e-06
 Reference value :  8.25013e-06
 Reference value :  8.25017e-06
 Reference value :  8.25020e-06
 Reference value :  8.25020e-06
 Reference value :  8.25020e-06
 Reference value :  8.25020e-06
 Reference value :  8.25021e-06
 Reference value :  8.25022e-06
 Reference value :  8.25023e-06
 Reference value :  8.25027e-06
 Reference value :  8.25033e-06
 Reference value :  8.25047e-06
 Reference value :  8.25064e-06
 Reference value :  8.25085e-06
 Reference value :  8.25127e-06
 Reference value :  8.25193e-06
 Reference value :  8.25261e-06
 Reference value :  8.25331e-06
 Reference value :  8.25422e-06
 Reference value :  8.25545e-06
 Reference value :  8.25660e-06
 Reference value :  8.25789e-06
 Reference value :  8.25953e-06
 Reference value :  8.26158e-06
 Reference value :  8.26424e-06
 Reference value :  8.26765e-06
 Reference value :  8.27257e-06
 Reference value :  8.28243e-06
 Reference value :  8.29636e-06
 Reference value :  8.32422e-06
 Reference value :  8.37994e-06
 Reference value :  8.48524e-06
 Reference value :  8.50000e-06
 Reference value :  8.50000e-06
 Reference value :  8.50000e-06
 Reference value :  8.50000e-06
 Reference value :  8.50000e-06
 Reference value :  8.50000e-06
 Reference value :  8.50000e-06
 Reference value :  8.50000e-06
 Reference value :  8.50000e-06
 Reference value :  8.50000e-06
 Reference value :  8.50001e-06
 Reference value :  8.50001e-06
 Reference value :  8.50002e-06
 Reference value :  8.50004e-06
 Reference value :  8.50008e-06
 Reference value :  8.50010e-06
 Reference value :  8.50010e-06
 Reference value :  8.50010e-06
 Reference value :  8.50010e-06
 Reference value :  8.50011e-06
 Reference value :  8.50011e-06
 Reference value :  8.50012e-06
 Reference value :  8.50014e-06
 Reference value :  8.50019e-06
 Reference value :  8.50028e-06
 Reference value :  8.50046e-06
 Reference value :  8.50082e-06
 Reference value :  8.50135e-06
 Reference value :  8.50205e-06
 Reference value :  8.50279e-06
 Reference value :  8.50347e-06
 Reference value :  8.50423e-06
 Reference value :  8.50495e-06
 Reference value :  8.50586e-06
 Reference value :  8.50686e-06
 Reference value :  8.50798e-06
 Reference value :  8.50900e-06
 Reference value :  8.51008e-06
 Reference value :  8.51151e-06
 Reference value :  8.51324e-06
 Reference value :  8.51598e-06
 Reference value :  8.52023e-06
 Reference value :  8.52791e-06
 Reference value :  8.54108e-06
 Reference value :  8.55390e-06
 Reference value :  8.56257e-06
 Reference value :  8.56827e-06
 Reference value :  8.57192e-06
 Reference value :  8.57338e-06
 Reference value :  8.57518e-06
 Reference value :  8.57705e-06
 Reference value :  8.58047e-06
 Reference value :  8.58623e-06
 Reference value :  8.59176e-06
 Reference value :  8.59827e-06
 Reference value :  8.60310e-06
 Reference value :  8.60820e-06
 Reference value :  8.61167e-06
 Reference value :  8.61613e-06
 Reference value :  8.62172e-06
 Reference value :  8.62780e-06
 Reference value :  8.63389e-06
 Reference value :  8.64143e-06
 Reference value :  8.65157e-06
 Reference value :  8.67029e-06
 Reference value :  8.69936e-06
 Reference value :  8.74830e-06
 Reference value :  8.75010e-06
 Reference value :  8.75011e-06
 Reference value :  8.75013e-06
 Reference value :  8.75017e-06
 Reference value :  8.75020e-06
 Reference value :  8.75020e-06
 Reference value :  8.75020e-06
 Reference value :  8.75020e-06
 Reference value :  8.75021e-06
 Reference value :  8.75022e-06
 Reference value :  8.75023e-06
 Reference value :  8.75027e-06
 Reference value :  8.75033e-06
 Reference value :  8.75047e-06
 Reference value :  8.75064e-06
 Reference value :  8.75091e-06
 Reference value :  8.75145e-06
 Reference value :  8.75211e-06
 Reference value :  8.75281e-06
 Reference value :  8.75354e-06
 Reference value :  8.75449e-06
 Reference value :  8.75554e-06
 Reference value :  8.75661e-06
 Reference value :  8.75759e-06
 Reference value :  8.75864e-06
 Reference value :  8.75988e-06
 Reference value :  8.76112e-06
 Reference value :  8.76253e-06
 Reference value :  8.76534e-06
 Reference value :  8.76931e-06
 Reference value :  8.77641e-06
 Reference value :  8.78807e-06
 Reference value :  8.80751e-06
 Reference value :  8.84115e-06
 Reference value :  8.90747e-06
 Reference value :  9.00000e-06
 Reference value :  9.00001e-06
 Reference value :  9.00003e-06
 Reference value :  9.00007e-06
 Reference value :  9.00010e-06
 Reference value :  9.00010e-06
 Reference value :  9.00010e-06
 Reference value :  9.00010e-06
 Reference value :  9.00011e-06
 Reference value :  9.00012e-06
 Reference value :  9.00013e-06
 Reference value :  9.00017e-06
 Reference value :  9.00023e-06
 Reference value :  9.00036e-06
 Reference value :  9.00056e-06
 Reference value :  9.00096e-06
 Reference value :  9.00147e-06
 Reference value :  9.00201e-06
 Reference value :  9.00276e-06
 Reference value :  9.00357e-06
 Reference value :  9.00432e-06
 Reference value :  9.00513e-06
 Reference value :  9.00613e-06
 Reference value :  9.00715e-06
 Reference value :  9.00839e-06
 Reference value :  9.00976e-06
 Reference value :  9.01140e-06
 Reference value :  9.01324e-06
 Reference value :  9.01491e-06
 Reference value :  9.01664e-06
 Reference value :  9.01901e-06
 Reference value :  9.02145e-06
 Reference value :  9.02542e-06
 Reference value :  9.02817e-06
 Reference value :  9.03118e-06
 Reference value :  9.03513e-06
 Reference value :  9.03930e-06
 Reference value :  9.04512e-06
 Reference value :  9.05151e-06
 Reference value :  9.06166e-06
 Reference value :  9.07741e-06
 Reference value :  9.10779e-06
 Reference value :  9.15855e-06
 Reference value :  9.25010e-06
 Reference value :  9.25011e-06
 Reference value :  9.25013e-06
 Reference value :  9.25017e-06
 Reference value :  9.25020e-06
 Reference value :  9.25020e-06
 Reference value :  9.25020e-06
 Reference value :  9.25020e-06
 Reference value :  9.25021e-06
 Reference value :  9.25022e-06
 Reference value :  9.25023e-06
 Reference value :  9.25027e-06
 Reference value :  9.25033e-06
 Reference value :  9.25047e-06
 Reference value :  9.25064e-06
 Reference value :  9.25091e-06
 Reference value :  9.25145e-06
 Reference value :  9.25210e-06
 Reference value :  9.25280e-06
 Reference value :  9.25353e-06
 Reference value :  9.25443e-06
 Reference value :  9.25552e-06
 Reference value :  9.25665e-06
 Reference value :  9.25768e-06
 Reference value :  9.25877e-06
 Reference value :  9.25976e-06
 Reference value :  9.26082e-06
 Reference value :  9.26192e-06
 Reference value :  9.26311e-06
 Reference value :  9.26459e-06
 Reference value :  9.26611e-06
 Reference value :  9.26855e-06
 Reference value :  9.27115e-06
 Reference value :  9.27537e-06
 Reference value :  9.28196e-06
 Reference value :  9.29139e-06
 Reference value :  9.30695e-06
 Reference value :  9.33011e-06
 Reference value :  9.37194e-06
 Reference value :  9.45559e-06
 Reference value :  9.50000e-06
 Reference value :  9.50001e-06
 Reference value :  9.50003e-06
 Reference value :  9.50007e-06
 Reference value :  9.50010e-06
 Reference value :  9.50010e-06
 Reference value :  9.50010e-06
 Reference value :  9.50010e-06
 Reference value :  9.50011e-06
 Reference value :  9.50012e-06
 Reference value :  9.50013e-06
 Reference value :  9.50017e-06
 Reference value :  9.50023e-06
 Reference value :  9.50036e-06
 Reference value :  9.50056e-06
 Reference value :  9.50096e-06
 Reference value :  9.50147e-06
 Reference value :  9.50201e-06
 Reference value :  9.50276e-06
 Reference value :  9.50346e-06
 Reference value :  9.50420e-06
 Reference value :  9.50499e-06
 Reference value :  9.50587e-06
 Reference value :  9.50691e-06
 Reference value :  9.50768e-06
 Reference value :  9.50855e-06
 Reference value :  9.50939e-06
 Reference value :  9.51026e-06
 Reference value :  9.51144e-06
 Reference value :  9.51269e-06
 Reference value :  9.51520e-06
 Reference value :  9.51755e-06
 Reference value :  9.51941e-06
 Reference value :  9.52149e-06
 Reference value :  9.52430e-06
 Reference value :  9.52654e-06
 Reference value :  9.52857e-06
 Reference value :  9.53009e-06
 Reference value :  9.53150e-06
 Reference value :  9.53303e-06
 Reference value :  9.53460e-06
 Reference value :  9.53637e-06
 Reference value :  9.53916e-06
 Reference value :  9.54206e-06
 Reference value :  9.54786e-06
 Reference value :  9.55652e-06
 Reference value :  9.57086e-06
 Reference value :  9.59764e-06
 Reference value :  9.64290e-06
 Reference value :  9.72148e-06
 Reference value :  9.75010e-06
 Reference value :  9.75011e-06
 Reference value :  9.75013e-06
 Reference value :  9.75017e-06
 Reference value :  9.75020e-06
 Reference value :  9.75020e-06
 Reference value :  9.75020e-06
 Reference value :  9.75020e-06
 Reference value :  9.75021e-06
 Reference value :  9.75022e-06
 Reference value :  9.75023e-06
 Reference value :  9.75027e-06
 Reference value :  9.75033e-06
 Reference value :  9.75047e-06
 Reference value :  9.75064e-06
 Reference value :  9.75091e-06
 Reference value :  9.75145e-06
 Reference value :  9.75210e-06
 Reference value :  9.75288e-06
 Reference value :  9.75358e-06
 Reference value :  9.75455e-06
 Reference value :  9.75561e-06
 Reference value :  9.75652e-06
 Reference value :  9.75760e-06
 Reference value :  9.75871e-06
 Reference value :  9.75986e-06
 Reference value :  9.76136e-06
 Reference value :  9.76388e-06
 Reference value :  9.76733e-06
 Reference value :  9.77243e-06
 Reference value :  9.78263e-06
 Reference value :  9.79800e-06
 Reference value :  9.82679e-06
 Reference value :  9.88438e-06
 Reference value :  9.99955e-06
 Reference value :  1.00000e-05
 Reference value :  1.00000e-05
 Reference value :  1.00000e-05
 Reference value :  1.00000e-05
 Reference value :  1.00001e-05
 Reference value :  1.00001e-05
 Reference value :  1.00001e-05
 Reference value :  1.00001e-05
 Reference value :  1.00001e-05
 Reference value :  1.00001e-05
 Reference value :  1.00001e-05
 Reference value :  1.00001e-05
 Reference value :  1.00001e-05
 Reference value :  1.00001e-05
 Reference value :  1.00002e-05
 Reference value :  1.00003e-05
 Reference value :  1.00004e-05
 Reference value :  1.00006e-05
 Reference value :  1.00011e-05
 Reference value :  1.00017e-05
 Reference value :  1.00024e-05
 Reference value :  1.00030e-05
 Reference value :  1.00038e-05
 Reference value :  1.00047e-05
 Reference value :  1.00056e-05
 Reference value :  1.00065e-05
 Reference value :  1.00076e-05
 Reference value :  1.00089e-05
 Reference value :  1.00104e-05
 Reference value :  1.00127e-05
 Reference value :  1.00143e-05
 Reference value :  1.00160e-05
 Reference value :  1.00179e-05
 Reference value :  1.00199e-05
 Reference value :  1.00235e-05
 Reference value :  1.00284e-05
 Reference value :  1.00376e-05
 Reference value :  1.00539e-05
 Reference value :  1.00827e-05
 Reference value :  1.01377e-05
 Reference value :  1.02344e-05
 Reference value :  1.02501e-05
 Reference value :  1.02501e-05
 Reference value :  1.02501e-05
 Reference value :  1.02502e-05
 Reference value :  1.02502e-05
 Reference value :  1.02502e-05
 Reference value :  1.02502e-05
 Reference value :  1.02502e-05
 Reference value :  1.02502e-05
 Reference value :  1.02502e-05
 Reference value :  1.02502e-05
 Reference value :  1.02503e-05
 Reference value :  1.02503e-05
 Reference value :  1.02505e-05
 Reference value :  1.02506e-05
 Reference value :  1.02509e-05
 Reference value :  1.02515e-05
 Reference value :  1.02521e-05
 Reference value :  1.02529e-05
 Reference value :  1.02536e-05
 Reference value :  1.02546e-05
 Reference value :  1.02556e-05
 Reference value :  1.02565e-05
 Reference value :  1.02576e-05
 Reference value :  1.02585e-05
 Reference value :  1.02595e-05
 Reference value :  1.02606e-05
 Reference value :  1.02619e-05
 Reference value :  1.02633e-05
 Reference value :  1.02649e-05
 Reference value :  1.02673e-05
 Reference value :  1.02699e-05
 Reference value :  1.02743e-05
 Reference value :  1.02829e-05
 Reference value :  1.02959e-05
 Reference value :  1.03212e-05
 Reference value :  1.03639e-05
 Reference value :  1.04394e-05
 Reference value :  1.05000e-05
 Reference value :  1.05000e-05
 Reference value :  1.05000e-05
 Reference value :  1.05001e-05
 Reference value :  1.05001e-05
 Reference value :  1.05001e-05
 Reference value :  1.05001e-05
 Reference value :  1.05001e-05
 Reference value :  1.05001e-05
 Reference value :  1.05001e-05
 Reference value :  1.05001e-05
 Reference value :  1.05002e-05
 Reference value :  1.05002e-05
 Reference value :  1.05004e-05
 Reference value :  1.05006e-05
 Reference value :  1.05010e-05
 Reference value :  1.05015e-05
 Reference value :  1.05020e-05
 Reference value :  1.05027e-05
 Reference value :  1.05034e-05
 Reference value :  1.05042e-05
 Reference value :  1.05050e-05
 Reference value :  1.05059e-05
 Reference value :  1.05066e-05
 Reference value :  1.05075e-05
 Reference value :  1.05082e-05
 Reference value :  1.05090e-05
 Reference value :  1.05101e-05
 Reference value :  1.05112e-05
 Reference value :  1.05132e-05
 Reference value :  1.05154e-05
 Reference value :  1.05176e-05
 Reference value :  1.05198e-05
 Reference value :  1.05219e-05
 Reference value :  1.05242e-05
 Reference value :  1.05260e-05
 Reference value :  1.05274e-05
 Reference value :  1.05290e-05
 Reference value :  1.05307e-05
 Reference value :  1.05326e-05
 Reference value :  1.05346e-05
 Reference value :  1.05376e-05
 Reference value :  1.05413e-05
 Reference value :  1.05486e-05
 Reference value :  1.05584e-05
 Reference value :  1.05761e-05
 Reference value :  1.05985e-05
 Reference value :  1.06433e-05
 Reference value :  1.07099e-05
 Reference value :  1.07501e-05
 Reference value :  1.07501e-05
 Reference value :  1.07501e-05
 Reference value :  1.07502e-05
 Reference value :  1.07502e-05
 Reference value :  1.07502e-05
 Reference value :  1.07502e-05
 Reference value :  1.07502e-05
 Reference value :  1.07502e-05
 Reference value :  1.07502e-05
 Reference value :  1.07502e-05
 Reference value :  1.07503e-05
 Reference value :  1.07503e-05
 Reference value :  1.07505e-05
 Reference value :  1.07506e-05
 Reference value :  1.07509e-05
 Reference value :  1.07515e-05
 Reference value :  1.07521e-05
 Reference value :  1.07529e-05
 Reference value :  1.07536e-05
 Reference value :  1.07545e-05
 Reference value :  1.07556e-05
 Reference value :  1.07566e-05
 Reference value :  1.07577e-05
 Reference value :  1.07588e-05
 Reference value :  1.07603e-05
 Reference value :  1.07624e-05
 Reference value :  1.07649e-05
 Reference value :  1.07689e-05
 Reference value :  1.07753e-05
 Reference value :  1.07860e-05
 Reference value :  1.08034e-05
 Reference value :  1.08379e-05
 Reference value :  1.09016e-05
 Reference value :  1.09618e-05
 Reference value :  1.10000e-05
 Reference value :  1.10000e-05
 Reference value :  1.10000e-05
 Reference value :  1.10001e-05
 Reference value :  1.10001e-05
 Reference value :  1.10001e-05
 Reference value :  1.10001e-05
 Reference value :  1.10001e-05
 Reference value :  1.10001e-05
 Reference value :  1.10001e-05
 Reference value :  1.10001e-05
 Reference value :  1.10002e-05
 Reference value :  1.10002e-05
 Reference value :  1.10004e-05
 Reference value :  1.10005e-05
 Reference value :  1.10009e-05
 Reference value :  1.10014e-05
 Reference value :  1.10019e-05
 Reference value :  1.10026e-05
 Reference value :  1.10033e-05
 Reference value :  1.10040e-05
 Reference value :  1.10047e-05
 Reference value :  1.10056e-05
 Reference value :  1.10064e-05
 Reference value :  1.10076e-05
 Reference value :  1.10089e-05
 Reference value :  1.10109e-05
 Reference value :  1.10124e-05
 Reference value :  1.10139e-05
 Reference value :  1.10155e-05
 Reference value :  1.10172e-05
 Reference value :  1.10190e-05
 Reference value :  1.10226e-05
 Reference value :  1.10271e-05
 Reference value :  1.10357e-05
 Reference value :  1.10505e-05
 Reference value :  1.10759e-05
 Reference value :  1.11267e-05
 Reference value :  1.12284e-05
 Reference value :  1.12501e-05
 Reference value :  1.12501e-05
 Reference value :  1.12501e-05
 Reference value :  1.12502e-05
 Reference value :  1.12502e-05
 Reference value :  1.12502e-05
 Reference value :  1.12502e-05
 Reference value :  1.12502e-05
 Reference value :  1.12502e-05
 Reference value :  1.12502e-05
 Reference value :  1.12502e-05
 Reference value :  1.12503e-05
 Reference value :  1.12503e-05
 Reference value :  1.12505e-05
 Reference value :  1.12506e-05
 Reference value :  1.12509e-05
 Reference value :  1.12515e-05
 Reference value :  1.12521e-05
 Reference value :  1.12529e-05
 Reference value :  1.12536e-05
 Reference value :  1.12546e-05
 Reference value :  1.12556e-05
 Reference value :  1.12566e-05
 Reference value :  1.12575e-05
 Reference value :  1.12584e-05
 Reference value :  1.12596e-05
 Reference value :  1.12608e-05
 Reference value :  1.12622e-05
 Reference value :  1.12638e-05
 Reference value :  1.12661e-05
 Reference value :  1.12687e-05
 Reference value :  1.12730e-05
 Reference value :  1.12800e-05
 Reference value :  1.12939e-05
 Reference value :  1.13184e-05
 Reference value :  1.13642e-05
 Reference value :  1.14498e-05
 Reference value :  1.15000e-05
 Reference value :  1.15000e-05
 Reference value :  1.15000e-05
 Reference value :  1.15001e-05
 Reference value :  1.15001e-05
 Reference value :  1.15001e-05
 Reference value :  1.15001e-05
 Reference value :  1.15001e-05
 Reference value :  1.15001e-05
 Reference value :  1.15001e-05
 Reference value :  1.15001e-05
 Reference value :  1.15002e-05
 Reference value :  1.15002e-05
 Reference value :  1.15004e-05
 Reference value :  1.15005e-05
 Reference value :  1.15009e-05
 Reference value :  1.15014e-05
 Reference value :  1.15019e-05
 Reference value :  1.15027e-05
 Reference value :  1.15034e-05
 Reference value :  1.15041e-05
 Reference value :  1.15049e-05
 Reference value :  1.15057e-05
 Reference value :  1.15065e-05
 Reference value :  1.15074e-05
 Reference value :  1.15081e-05
 Reference value :  1.15089e-05
 Reference value :  1.15101e-05
 Reference value :  1.15112e-05
 Reference value :  1.15130e-05
 Reference value :  1.15152e-05
 Reference value :  1.15168e-05
 Reference value :  1.15186e-05
 Reference value :  1.15205e-05
 Reference value :  1.15225e-05
 Reference value :  1.15239e-05
 Reference value :  1.15254e-05
 Reference value :  1.15267e-05
 Reference value :  1.15282e-05
 Reference value :  1.15299e-05
 Reference value :  1.15317e-05
 Reference value :  1.15345e-05
 Reference value :  1.15379e-05
 Reference value :  1.15449e-05
 Reference value :  1.15561e-05
 Reference value :  1.15727e-05
 Reference value :  1.16042e-05
 Reference value :  1.16552e-05
 Reference value :  1.17031e-05
 Reference value :  1.17375e-05
 Reference value :  1.17501e-05
 Reference value :  1.17501e-05
 Reference value :  1.17501e-05
 Reference value :  1.17502e-05
 Reference value :  1.17502e-05
 Reference value :  1.17502e-05
 Reference value :  1.17502e-05
 Reference value :  1.17502e-05
 Reference value :  1.17502e-05
 Reference value :  1.17502e-05
 Reference value :  1.17502e-05
 Reference value :  1.17503e-05
 Reference value :  1.17503e-05
 Reference value :  1.17505e-05
 Reference value :  1.17506e-05
 Reference value :  1.17509e-05
 Reference value :  1.17515e-05
 Reference value :  1.17521e-05
 Reference value :  1.17529e-05
 Reference value :  1.17536e-05
 Reference value :  1.17545e-05
 Reference value :  1.17556e-05
 Reference value :  1.17565e-05
 Reference value :  1.17575e-05
 Reference value :  1.17585e-05
 Reference value :  1.17599e-05
 Reference value :  1.17614e-05
 Reference value :  1.17640e-05
 Reference value :  1.17673e-05
 Reference value :  1.17727e-05
 Reference value :  1.17833e-05
 Reference value :  1.17991e-05
 Reference value :  1.18303e-05
 Reference value :  1.18926e-05
 Reference value :  1.20000e-05
 Reference value :  1.20000e-05
 Reference value :  1.20000e-05
 Reference value :  1.20001e-05
 Reference value :  1.20001e-05
 Reference value :  1.20001e-05
 Reference value :  1.20001e-05
 Reference value :  1.20001e-05
 Reference value :  1.20001e-05
 Reference value :  1.20001e-05
 Reference value :  1.20001e-05
 Reference value :  1.20002e-05
 Reference value :  1.20002e-05
 Reference value :  1.20004e-05
 Reference value :  1.20005e-05
 Reference value :  1.20009e-05
 Reference value :  1.20014e-05
 Reference value :  1.20019e-05
 Reference value :  1.20027e-05
 Reference value :  1.20034e-05
 Reference value :  1.20041e-05
 Reference value :  1.20049e-05
 Reference value :  1.20058e-05
 Reference value :  1.20068e-05
 Reference value :  1.20080e-05
 Reference value :  1.20096e-05
 Reference value :  1.20111e-05
 Reference value :  1.20129e-05
 Reference value :  1.20145e-05
 Reference value :  1.20164e-05
 Reference value :  1.20182e-05
 Reference value :  1.20205e-05
 Reference value :  1.20240e-05
 Reference value :  1.20292e-05
 Reference value :  1.20383e-05
 Reference value :  1.20548e-05
 Reference value :  1.20841e-05
 Reference value :  1.21397e-05
 Reference value :  1.22501e-05
 Reference value :  1.22501e-05
 Reference value :  1.22501e-05
 Reference value :  1.22502e-05
 Reference value :  1.22502e-05
 Reference value :  1.22502e-05
 Reference value :  1.22502e-05
 Reference value :  1.22502e-05
 Reference value :  1.22502e-05
 Reference value :  1.22502e-05
 Reference value :  1.22502e-05
 Reference value :  1.22503e-05
 Reference value :  1.22503e-05
 Reference value :  1.22505e-05
 Reference value :  1.22506e-05
 Reference value :  1.22509e-05
 Reference value :  1.22515e-05
 Reference value :  1.22521e-05
 Reference value :  1.22529e-05
 Reference value :  1.22536e-05
 Reference value :  1.22545e-05
 Reference value :  1.22556e-05
 Reference value :  1.22565e-05
 Reference value :  1.22575e-05
 Reference value :  1.22584e-05
 Reference value :  1.22594e-05
 Reference value :  1.22606e-05
 Reference value :  1.22620e-05
 Reference value :  1.22635e-05
 Reference value :  1.22659e-05
 Reference value :  1.22685e-05
 Reference value :  1.22721e-05
 Reference value :  1.22772e-05
 Reference value :  1.22875e-05
 Reference value :  1.23080e-05
 Reference value :  1.23490e-05
 Reference value :  1.24311e-05
 Reference value :  1.25000e-05
 Reference value :  1.25000e-05
 Reference value :  1.25000e-05
 Reference value :  1.25001e-05
 Reference value :  1.25001e-05
 Reference value :  1.25001e-05
 Reference value :  1.25001e-05
 Reference value :  1.25001e-05
 Reference value :  1.25001e-05
 Reference value :  1.25001e-05
 Reference value :  1.25001e-05
 Reference value :  1.25002e-05
 Reference value :  1.25002e-05
 Reference value :  1.25004e-05
 Reference value :  1.25005e-05
 Reference value :  1.25009e-05
 Reference value :  1.25014e-05
 Reference value :  1.25019e-05
 Reference value :  1.25027e-05
 Reference value :  1.25034e-05
 Reference value :  1.25041e-05
 Reference value :  1.25049e-05
 Reference value :  1.25057e-05
 Reference value :  1.25065e-05
 Reference value :  1.25073e-05
 Reference value :  1.25080e-05
 Reference value :  1.25089e-05
 Reference value :  1.25097e-05
 Reference value :  1.25109e-05
 Reference value :  1.25121e-05
 Reference value :  1.25142e-05
 Reference value :  1.25164e-05
 Reference value :  1.25181e-05
 Reference value :  1.25200e-05
 Reference value :  1.25225e-05
 Reference value :  1.25248e-05
 Reference value :  1.25264e-05
 Reference value :  1.25280e-05
 Reference value :  1.25298e-05
 Reference value :  1.25317e-05
 Reference value :  1.25338e-05
 Reference value :  1.25368e-05
 Reference value :  1.25410e-05
 Reference value :  1.25476e-05
 Reference value :  1.25585e-05
 Reference value :  1.25695e-05
 Reference value :  1.25798e-05
 Reference value :  1.25908e-05
 Reference value :  1.25965e-05
 Reference value :  1.26021e-05
 Reference value :  1.26077e-05
 Reference value :  1.26135e-05
 Reference value :  1.26228e-05
 Reference value :  1.26340e-05
 Reference value :  1.26524e-05
 Reference value :  1.26808e-05
 Reference value :  1.27160e-05
 Reference value :  1.27501e-05
 Reference value :  1.27501e-05
 Reference value :  1.27501e-05
 Reference value :  1.27502e-05
 Reference value :  1.27502e-05
 Reference value :  1.27502e-05
 Reference value :  1.27502e-05
 Reference value :  1.27502e-05
 Reference value :  1.27502e-05
 Reference value :  1.27502e-05
 Reference value :  1.27502e-05
 Reference value :  1.27503e-05
 Reference value :  1.27503e-05
 Reference value :  1.27504e-05
 Reference value :  1.27506e-05
 Reference value :  1.27508e-05
 Reference value :  1.27511e-05
 Reference value :  1.27517e-05
 Reference value :  1.27523e-05
 Reference value :  1.27530e-05
 Reference value :  1.27538e-05
 Reference value :  1.27547e-05
 Reference value :  1.27556e-05
 Reference value :  1.27565e-05
 Reference value :  1.27574e-05
 Reference value :  1.27584e-05
 Reference value :  1.27600e-05
 Reference value :  1.27616e-05
 Reference value :  1.27642e-05
 Reference value :  1.27677e-05
 Reference value :  1.27732e-05
 Reference value :  1.27844e-05
 Reference value :  1.28066e-05
 Reference value :  1.28510e-05
 Reference value :  1.29400e-05
 Reference value :  1.30000e-05
 Reference value :  1.30000e-05
 Reference value :  1.30000e-05
 Reference value :  1.30001e-05
 Reference value :  1.30001e-05
 Reference value :  1.30001e-05
 Reference value :  1.30001e-05
 Reference value :  1.30001e-05
 Reference value :  1.30001e-05
 Reference value :  1.30001e-05
 Reference value :  1.30001e-05
 Reference value :  1.30002e-05
 Reference value :  1.30002e-05
 Reference value :  1.30004e-05
 Reference value :  1.30006e-05
 Reference value :  1.30011e-05
 Reference value :  1.30017e-05
 Reference value :  1.30025e-05
 Reference value :  1.30031e-05
 Reference value :  1.30039e-05
 Reference value :  1.30047e-05
 Reference value :  1.30056e-05
 Reference value :  1.30065e-05
 Reference value :  1.30075e-05
 Reference value :  1.30088e-05
 Reference value :  1.30104e-05
 Reference value :  1.30116e-05
 Reference value :  1.30130e-05
 Reference value :  1.30145e-05
 Reference value :  1.30162e-05
 Reference value :  1.30179e-05
 Reference value :  1.30213e-05
 Reference value :  1.30281e-05
 Reference value :  1.30417e-05
 Reference value :  1.30688e-05
 Reference value :  1.31230e-05
 Reference value :  1.32314e-05
 Reference value :  1.32501e-05
 Reference value :  1.32501e-05
 Reference value :  1.32501e-05
 Reference value :  1.32502e-05
 Reference value :  1.32502e-05
 Reference value :  1.32502e-05
 Reference value :  1.32502e-05
 Reference value :  1.32502e-05
 Reference value :  1.32502e-05
 Reference value :  1.32502e-05
 Reference value :  1.32502e-05
 Reference value :  1.32503e-05
 Reference value :  1.32503e-05
 Reference value :  1.32504e-05
 Reference value :  1.32506e-05
 Reference value :  1.32508e-05
 Reference value :  1.32511e-05
 Reference value :  1.32517e-05
 Reference value :  1.32523e-05
 Reference value :  1.32530e-05
 Reference value :  1.32538e-05
 Reference value :  1.32547e-05
 Reference value :  1.32555e-05
 Reference value :  1.32565e-05
 Reference value :  1.32573e-05
 Reference value :  1.32582e-05
 Reference value :  1.32592e-05
 Reference value :  1.32604e-05
 Reference value :  1.32627e-05
 Reference value :  1.32656e-05
 Reference value :  1.32699e-05
 Reference value :  1.32770e-05
 Reference value :  1.32913e-05
 Reference value :  1.33200e-05
 Reference value :  1.33772e-05
 Reference value :  1.34917e-05
 Reference value :  1.35000e-05
 Reference value :  1.35000e-05
 Reference value :  1.35000e-05
 Reference value :  1.35001e-05
 Reference value :  1.35001e-05
 Reference value :  1.35001e-05
 Reference value :  1.35001e-05
 Reference value :  1.35001e-05
 Reference value :  1.35001e-05
 Reference value :  1.35001e-05
 Reference value :  1.35001e-05
 Reference value :  1.35002e-05
 Reference value :  1.35002e-05
 Reference value :  1.35004e-05
 Reference value :  1.35006e-05
 Reference value :  1.35011e-05
 Reference value :  1.35017e-05
 Reference value :  1.35025e-05
 Reference value :  1.35031e-05
 Reference value :  1.35039e-05
 Reference value :  1.35048e-05
 Reference value :  1.35057e-05
 Reference value :  1.35065e-05
 Reference value :  1.35073e-05
 Reference value :  1.35081e-05
 Reference value :  1.35090e-05
 Reference value :  1.35102e-05
 Reference value :  1.35114e-05
 Reference value :  1.35138e-05
 Reference value :  1.35164e-05
 Reference value :  1.35195e-05
 Reference value :  1.35229e-05
 Reference value :  1.35264e-05
 Reference value :  1.35290e-05
 Reference value :  1.35313e-05
 Reference value :  1.35340e-05
 Reference value :  1.35366e-05
 Reference value :  1.35393e-05
 Reference value :  1.35431e-05
 Reference value :  1.35476e-05
 Reference value :  1.35539e-05
 Reference value :  1.35628e-05
 Reference value :  1.35755e-05
 Reference value :  1.35875e-05
 Reference value :  1.35997e-05
 Reference value :  1.36138e-05
 Reference value :  1.36233e-05
 Reference value :  1.36323e-05
 Reference value :  1.36445e-05
 Reference value :  1.36530e-05
 Reference value :  1.36628e-05
 Reference value :  1.36750e-05
 Reference value :  1.36907e-05
 Reference value :  1.37138e-05
 Reference value :  1.37484e-05
 Reference value :  1.37501e-05
 Reference value :  1.37501e-05
 Reference value :  1.37501e-05
 Reference value :  1.37502e-05
 Reference value :  1.37502e-05
 Reference value :  1.37502e-05
 Reference value :  1.37502e-05
 Reference value :  1.37502e-05
 Reference value :  1.37502e-05
 Reference value :  1.37502e-05
 Reference value :  1.37502e-05
 Reference value :  1.37503e-05
 Reference value :  1.37503e-05
 Reference value :  1.37504e-05
 Reference value :  1.37506e-05
 Reference value :  1.37508e-05
 Reference value :  1.37511e-05
 Reference value :  1.37517e-05
 Reference value :  1.37523e-05
 Reference value :  1.37530e-05
 Reference value :  1.37538e-05
 Reference value :  1.37547e-05
 Reference value :  1.37558e-05
 Reference value :  1.37565e-05
 Reference value :  1.37574e-05
 Reference value :  1.37583e-05
 Reference value :  1.37595e-05
 Reference value :  1.37607e-05
 Reference value :  1.37631e-05
 Reference value :  1.37662e-05
 Reference value :  1.37707e-05
 Reference value :  1.37793e-05
 Reference value :  1.37964e-05
 Reference value :  1.38307e-05
 Reference value :  1.38783e-05
 Reference value :  1.39608e-05
 Reference value :  1.40000e-05
 Reference value :  1.40000e-05
 Reference value :  1.40000e-05
 Reference value :  1.40001e-05
 Reference value :  1.40001e-05
 Reference value :  1.40001e-05
 Reference value :  1.40001e-05
 Reference value :  1.40001e-05
 Reference value :  1.40001e-05
 Reference value :  1.40001e-05
 Reference value :  1.40001e-05
 Reference value :  1.40002e-05
 Reference value :  1.40002e-05
 Reference value :  1.40004e-05
 Reference value :  1.40006e-05
 Reference value :  1.40011e-05
 Reference value :  1.40017e-05
 Reference value :  1.40025e-05
 Reference value :  1.40031e-05
 Reference value :  1.40039e-05
 Reference value :  1.40048e-05
 Reference value :  1.40058e-05
 Reference value :  1.40067e-05
 Reference value :  1.40078e-05
 Reference value :  1.40093e-05
 Reference value :  1.40109e-05
 Reference value :  1.40123e-05
 Reference value :  1.40137e-05
 Reference value :  1.40152e-05
 Reference value :  1.40171e-05
 Reference value :  1.40188e-05
 Reference value :  1.40223e-05
 Reference value :  1.40273e-05
 Reference value :  1.40362e-05
 Reference value :  1.40541e-05
 Reference value :  1.40848e-05
 Reference value :  1.41449e-05
 Reference value :  1.42501e-05
 Reference value :  1.42501e-05
 Reference value :  1.42501e-05
 Reference value :  1.42502e-05
 Reference value :  1.42502e-05
 Reference value :  1.42502e-05
 Reference value :  1.42502e-05
 Reference value :  1.42502e-05
 Reference value :  1.42502e-05
 Reference value :  1.42502e-05
 Reference value :  1.42502e-05
 Reference value :  1.42503e-05
 Reference value :  1.42503e-05
 Reference value :  1.42504e-05
 Reference value :  1.42506e-05
 Reference value :  1.42508e-05
 Reference value :  1.42511e-05
 Reference value :  1.42517e-05
 Reference value :  1.42523e-05
 Reference value :  1.42530e-05
 Reference value :  1.42538e-05
 Reference value :  1.42547e-05
 Reference value :  1.42557e-05
 Reference value :  1.42565e-05
 Reference value :  1.42574e-05
 Reference value :  1.42584e-05
 Reference value :  1.42593e-05
 Reference value :  1.42604e-05
 Reference value :  1.42616e-05
 Reference value :  1.42631e-05
 Reference value :  1.42647e-05
 Reference value :  1.42669e-05
 Reference value :  1.42694e-05
 Reference value :  1.42736e-05
 Reference value :  1.42816e-05
 Reference value :  1.42937e-05
 Reference value :  1.43167e-05
 Reference value :  1.43551e-05
 Reference value :  1.44223e-05
 Reference value :  1.45000e-05
 Reference value :  1.45000e-05
 Reference value :  1.45000e-05
 Reference value :  1.45001e-05
 Reference value :  1.45001e-05
 Reference value :  1.45001e-05
 Reference value :  1.45001e-05
 Reference value :  1.45001e-05
 Reference value :  1.45001e-05
 Reference value :  1.45001e-05
 Reference value :  1.45001e-05
 Reference value :  1.45002e-05
 Reference value :  1.45002e-05
 Reference value :  1.45004e-05
 Reference value :  1.45006e-05
 Reference value :  1.45011e-05
 Reference value :  1.45017e-05
 Reference value :  1.45025e-05
 Reference value :  1.45031e-05
 Reference value :  1.45039e-05
 Reference value :  1.45048e-05
 Reference value :  1.45057e-05
 Reference value :  1.45067e-05
 Reference value :  1.45076e-05
 Reference value :  1.45085e-05
 Reference value :  1.45096e-05
 Reference value :  1.45108e-05
 Reference value :  1.45120e-05
 Reference value :  1.45144e-05
 Reference value :  1.45170e-05
 Reference value :  1.45189e-05
 Reference value :  1.45210e-05
 Reference value :  1.45234e-05
 Reference value :  1.45259e-05
 Reference value :  1.45280e-05
 Reference value :  1.45295e-05
 Reference value :  1.45312e-05
 Reference value :  1.45330e-05
 Reference value :  1.45351e-05
 Reference value :  1.45372e-05
 Reference value :  1.45403e-05
 Reference value :  1.45447e-05
 Reference value :  1.45497e-05
 Reference value :  1.45555e-05
 Reference value :  1.45625e-05
 Reference value :  1.45730e-05
 Reference value :  1.45908e-05
 Reference value :  1.46238e-05
 Reference value :  1.46765e-05
 Reference value :  1.47257e-05
 Reference value :  1.47501e-05
 Reference value :  1.47501e-05
 Reference value :  1.47501e-05
 Reference value :  1.47502e-05
 Reference value :  1.47502e-05
 Reference value :  1.47502e-05
 Reference value :  1.47502e-05
 Reference value :  1.47502e-05
 Reference value :  1.47502e-05
 Reference value :  1.47502e-05
 Reference value :  1.47502e-05
 Reference value :  1.47503e-05
 Reference value :  1.47503e-05
 Reference value :  1.47504e-05
 Reference value :  1.47506e-05
 Reference value :  1.47508e-05
 Reference value :  1.47511e-05
 Reference value :  1.47517e-05
 Reference value :  1.47523e-05
 Reference value :  1.47530e-05
 Reference value :  1.47537e-05
 Reference value :  1.47546e-05
 Reference value :  1.47557e-05
 Reference value :  1.47569e-05
 Reference value :  1.47580e-05
 Reference value :  1.47590e-05
 Reference value :  1.47602e-05
 Reference value :  1.47621e-05
 Reference value :  1.47639e-05
 Reference value :  1.47674e-05
 Reference value :  1.47726e-05
 Reference value :  1.47816e-05
 Reference value :  1.47984e-05
 Reference value :  1.48271e-05
 Reference value :  1.48845e-05
 Reference value :  1.49868e-05
 Reference value :  1.50000e-05
 Reference value :  1.50000e-05
 Reference value :  1.50000e-05
 Reference value :  1.50001e-05
 Reference value :  1.50001e-05
 Reference value :  1.50001e-05
 Reference value :  1.50001e-05
[...]
 Reference value :  1.74501e-04
 Reference value :  1.74501e-04
 Reference value :  1.74502e-04
 Reference value :  1.74502e-04
 Reference value :  1.74503e-04
 Reference value :  1.74504e-04
 Reference value :  1.74505e-04
 Reference value :  1.74506e-04
 Reference value :  1.74506e-04
 Reference value :  1.74507e-04
 Reference value :  1.74509e-04
 Reference value :  1.74510e-04
 Reference value :  1.74512e-04
 Reference value :  1.74513e-04
 Reference value :  1.74515e-04
 Reference value :  1.74516e-04
 Reference value :  1.74518e-04
 Reference value :  1.74521e-04
 Reference value :  1.74528e-04
 Reference value :  1.74542e-04
 Reference value :  1.74569e-04
 Reference value :  1.74623e-04
 Reference value :  1.74731e-04
 Reference value :  1.74750e-04
 Reference value :  1.74750e-04
 Reference value :  1.74750e-04
 Reference value :  1.74750e-04
 Reference value :  1.74750e-04
 Reference value :  1.74750e-04
 Reference value :  1.74750e-04
 Reference value :  1.74750e-04
 Reference value :  1.74750e-04
 Reference value :  1.74750e-04
 Reference value :  1.74750e-04
 Reference value :  1.74750e-04
 Reference value :  1.74750e-04
 Reference value :  1.74750e-04
 Reference value :  1.74751e-04
 Reference value :  1.74751e-04
 Reference value :  1.74751e-04
 Reference value :  1.74752e-04
 Reference value :  1.74752e-04
 Reference value :  1.74753e-04
 Reference value :  1.74754e-04
 Reference value :  1.74755e-04
 Reference value :  1.74756e-04
 Reference value :  1.74756e-04
 Reference value :  1.74757e-04
 Reference value :  1.74758e-04
 Reference value :  1.74759e-04
 Reference value :  1.74760e-04
 Reference value :  1.74763e-04
 Reference value :  1.74766e-04
 Reference value :  1.74770e-04
 Reference value :  1.74777e-04
 Reference value :  1.74791e-04
 Reference value :  1.74820e-04
 Reference value :  1.74877e-04
 Reference value :  1.74992e-04
 Reference value :  1.75000e-04
 Reference value :  1.75000e-04
 Reference value :  1.75000e-04
 Reference value :  1.75000e-04
 Reference value :  1.75000e-04
 Reference value :  1.75000e-04
 Reference value :  1.75000e-04
 Reference value :  1.75000e-04
 Reference value :  1.75000e-04
 Reference value :  1.75000e-04
 Reference value :  1.75000e-04
 Reference value :  1.75000e-04
 Reference value :  1.75000e-04
 Reference value :  1.75000e-04
 Reference value :  1.75001e-04
 Reference value :  1.75001e-04
 Reference value :  1.75002e-04
 Reference value :  1.75002e-04
 Reference value :  1.75003e-04
 Reference value :  1.75004e-04
 Reference value :  1.75005e-04
 Reference value :  1.75006e-04
 Reference value :  1.75006e-04
 Reference value :  1.75007e-04
 Reference value :  1.75008e-04
 Reference value :  1.75009e-04
 Reference value :  1.75010e-04
 Reference value :  1.75011e-04
 Reference value :  1.75014e-04
 Reference value :  1.75016e-04
 Reference value :  1.75020e-04
 Reference value :  1.75023e-04
 Reference value :  1.75026e-04
 Reference value :  1.75029e-04
 Reference value :  1.75031e-04
 Reference value :  1.75034e-04
 Reference value :  1.75037e-04
 Reference value :  1.75039e-04
 Reference value :  1.75043e-04
 Reference value :  1.75048e-04
 Reference value :  1.75054e-04
 Reference value :  1.75063e-04
 Reference value :  1.75075e-04
 Reference value :  1.75087e-04
 Reference value :  1.75111e-04
 Reference value :  1.75139e-04
 Reference value :  1.75173e-04
 Reference value :  1.75243e-04
 Reference value :  1.75250e-04
 Reference value :  1.75250e-04
 Reference value :  1.75250e-04
 Reference value :  1.75250e-04
 Reference value :  1.75250e-04
 Reference value :  1.75250e-04
 Reference value :  1.75250e-04
 Reference value :  1.75250e-04
 Reference value :  1.75250e-04
 Reference value :  1.75250e-04
 Reference value :  1.75250e-04
 Reference value :  1.75250e-04
 Reference value :  1.75250e-04
 Reference value :  1.75250e-04
 Reference value :  1.75251e-04
 Reference value :  1.75251e-04
 Reference value :  1.75251e-04
 Reference value :  1.75252e-04
 Reference value :  1.75252e-04
 Reference value :  1.75253e-04
 Reference value :  1.75254e-04
 Reference value :  1.75255e-04
 Reference value :  1.75256e-04
 Reference value :  1.75257e-04
 Reference value :  1.75257e-04
 Reference value :  1.75258e-04
 Reference value :  1.75259e-04
 Reference value :  1.75261e-04
 Reference value :  1.75263e-04
 Reference value :  1.75266e-04
 Reference value :  1.75271e-04
 Reference value :  1.75279e-04
 Reference value :  1.75297e-04
 Reference value :  1.75331e-04
 Reference value :  1.75400e-04
 Reference value :  1.75500e-04
 Reference value :  1.75500e-04
 Reference value :  1.75500e-04
 Reference value :  1.75500e-04
 Reference value :  1.75500e-04
 Reference value :  1.75500e-04
 Reference value :  1.75500e-04
 Reference value :  1.75500e-04
 Reference value :  1.75500e-04
 Reference value :  1.75500e-04
 Reference value :  1.75500e-04
 Reference value :  1.75500e-04
 Reference value :  1.75500e-04
 Reference value :  1.75500e-04
 Reference value :  1.75501e-04
 Reference value :  1.75501e-04
 Reference value :  1.75502e-04
 Reference value :  1.75502e-04
 Reference value :  1.75503e-04
 Reference value :  1.75504e-04
 Reference value :  1.75505e-04
 Reference value :  1.75506e-04
 Reference value :  1.75507e-04
 Reference value :  1.75508e-04
 Reference value :  1.75509e-04
 Reference value :  1.75511e-04
 Reference value :  1.75512e-04
 Reference value :  1.75514e-04
 Reference value :  1.75515e-04
 Reference value :  1.75517e-04
 Reference value :  1.75518e-04
 Reference value :  1.75522e-04
 Reference value :  1.75527e-04
 Reference value :  1.75536e-04
 Reference value :  1.75555e-04
 Reference value :  1.75588e-04
 Reference value :  1.75653e-04
 Reference value :  1.75750e-04
 Reference value :  1.75750e-04
 Reference value :  1.75750e-04
 Reference value :  1.75750e-04
 Reference value :  1.75750e-04
 Reference value :  1.75750e-04
 Reference value :  1.75750e-04
 Reference value :  1.75750e-04
 Reference value :  1.75750e-04
 Reference value :  1.75750e-04
 Reference value :  1.75750e-04
 Reference value :  1.75750e-04
 Reference value :  1.75750e-04
 Reference value :  1.75750e-04
 Reference value :  1.75751e-04
 Reference value :  1.75751e-04
 Reference value :  1.75751e-04
 Reference value :  1.75752e-04
 Reference value :  1.75752e-04
 Reference value :  1.75753e-04
 Reference value :  1.75754e-04
 Reference value :  1.75755e-04
 Reference value :  1.75756e-04
 Reference value :  1.75756e-04
 Reference value :  1.75757e-04
 Reference value :  1.75758e-04
 Reference value :  1.75759e-04
 Reference value :  1.75761e-04
 Reference value :  1.75762e-04
 Reference value :  1.75765e-04
 Reference value :  1.75769e-04
 Reference value :  1.75776e-04
 Reference value :  1.75791e-04
 Reference value :  1.75819e-04
 Reference value :  1.75874e-04
 Reference value :  1.75983e-04
 Reference value :  1.76000e-04
 Reference value :  1.76000e-04
 Reference value :  1.76000e-04
 Reference value :  1.76000e-04
 Reference value :  1.76000e-04
 Reference value :  1.76000e-04
 Reference value :  1.76000e-04
 Reference value :  1.76000e-04
 Reference value :  1.76000e-04
 Reference value :  1.76000e-04
 Reference value :  1.76000e-04
 Reference value :  1.76000e-04
 Reference value :  1.76000e-04
 Reference value :  1.76000e-04
 Reference value :  1.76001e-04
 Reference value :  1.76001e-04
 Reference value :  1.76002e-04
 Reference value :  1.76002e-04
 Reference value :  1.76003e-04
 Reference value :  1.76004e-04
 Reference value :  1.76005e-04
 Reference value :  1.76006e-04
 Reference value :  1.76007e-04
 Reference value :  1.76008e-04
 Reference value :  1.76009e-04
 Reference value :  1.76010e-04
 Reference value :  1.76011e-04
 Reference value :  1.76013e-04
 Reference value :  1.76015e-04
 Reference value :  1.76019e-04
 Reference value :  1.76024e-04
 Reference value :  1.76027e-04
 Reference value :  1.76030e-04
 Reference value :  1.76033e-04
 Reference value :  1.76036e-04
 Reference value :  1.76039e-04
 Reference value :  1.76042e-04
 Reference value :  1.76045e-04
 Reference value :  1.76051e-04
 Reference value :  1.76058e-04
 Reference value :  1.76068e-04
 Reference value :  1.76082e-04
 Reference value :  1.76102e-04
 Reference value :  1.76131e-04
 Reference value :  1.76177e-04
 Reference value :  1.76243e-04
 Reference value :  1.76250e-04
 Reference value :  1.76250e-04
 Reference value :  1.76250e-04
 Reference value :  1.76250e-04
 Reference value :  1.76250e-04
 Reference value :  1.76250e-04
 Reference value :  1.76250e-04
 Reference value :  1.76250e-04
 Reference value :  1.76250e-04
 Reference value :  1.76250e-04
 Reference value :  1.76250e-04
 Reference value :  1.76250e-04
 Reference value :  1.76250e-04
 Reference value :  1.76250e-04
 Reference value :  1.76251e-04
 Reference value :  1.76251e-04
 Reference value :  1.76251e-04
 Reference value :  1.76252e-04
 Reference value :  1.76252e-04
 Reference value :  1.76253e-04
 Reference value :  1.76254e-04
 Reference value :  1.76255e-04
 Reference value :  1.76256e-04
 Reference value :  1.76257e-04
 Reference value :  1.76258e-04
 Reference value :  1.76259e-04
 Reference value :  1.76260e-04
 Reference value :  1.76262e-04
 Reference value :  1.76264e-04
 Reference value :  1.76267e-04
 Reference value :  1.76272e-04
 Reference value :  1.76281e-04
 Reference value :  1.76297e-04
 Reference value :  1.76326e-04
 Reference value :  1.76384e-04
 Reference value :  1.76500e-04
 Reference value :  1.76500e-04
 Reference value :  1.76500e-04
 Reference value :  1.76500e-04
 Reference value :  1.76500e-04
 Reference value :  1.76500e-04
 Reference value :  1.76500e-04
 Reference value :  1.76500e-04
 Reference value :  1.76500e-04
 Reference value :  1.76500e-04
 Reference value :  1.76500e-04
 Reference value :  1.76500e-04
 Reference value :  1.76500e-04
 Reference value :  1.76500e-04
 Reference value :  1.76500e-04
 Reference value :  1.76500e-04
 Reference value :  1.76500e-04
 Reference value :  1.76500e-04
 Reference value :  1.76500e-04
 Reference value :  1.76500e-04
 Reference value :  1.76500e-04
 Reference value :  1.76501e-04
 Reference value :  1.76501e-04
 Reference value :  1.76502e-04
 Reference value :  1.76502e-04
 Reference value :  1.76503e-04
 Reference value :  1.76504e-04
 Reference value :  1.76505e-04
 Reference value :  1.76506e-04
 Reference value :  1.76507e-04
 Reference value :  1.76508e-04
 Reference value :  1.76509e-04
 Reference value :  1.76511e-04
 Reference value :  1.76512e-04
 Reference value :  1.76514e-04
 Reference value :  1.76515e-04
 Reference value :  1.76517e-04
 Reference value :  1.76519e-04
 Reference value :  1.76522e-04
 Reference value :  1.76527e-04
 Reference value :  1.76537e-04
 Reference value :  1.76552e-04
 Reference value :  1.76584e-04
 Reference value :  1.76648e-04
 Reference value :  1.76750e-04
 Reference value :  1.76750e-04
 Reference value :  1.76750e-04
 Reference value :  1.76750e-04
 Reference value :  1.76750e-04
 Reference value :  1.76750e-04
 Reference value :  1.76750e-04
 Reference value :  1.76750e-04
 Reference value :  1.76750e-04
 Reference value :  1.76750e-04
 Reference value :  1.76750e-04
 Reference value :  1.76750e-04
 Reference value :  1.76750e-04
 Reference value :  1.76750e-04
 Reference value :  1.76751e-04
 Reference value :  1.76751e-04
 Reference value :  1.76751e-04
 Reference value :  1.76752e-04
 Reference value :  1.76752e-04
 Reference value :  1.76753e-04
 Reference value :  1.76754e-04
 Reference value :  1.76755e-04
 Reference value :  1.76756e-04
 Reference value :  1.76757e-04
 Reference value :  1.76758e-04
 Reference value :  1.76759e-04
 Reference value :  1.76760e-04
 Reference value :  1.76761e-04
 Reference value :  1.76762e-04
 Reference value :  1.76765e-04
 Reference value :  1.76769e-04
 Reference value :  1.76776e-04
 Reference value :  1.76789e-04
 Reference value :  1.76817e-04
 Reference value :  1.76871e-04
 Reference value :  1.76980e-04
 Reference value :  1.77000e-04
 Reference value :  1.77000e-04
 Reference value :  1.77000e-04
 Reference value :  1.77000e-04
 Reference value :  1.77000e-04
 Reference value :  1.77000e-04
 Reference value :  1.77000e-04
 Reference value :  1.77000e-04
 Reference value :  1.77000e-04
 Reference value :  1.77000e-04
 Reference value :  1.77000e-04
 Reference value :  1.77000e-04
 Reference value :  1.77000e-04
 Reference value :  1.77000e-04
 Reference value :  1.77001e-04
 Reference value :  1.77001e-04
 Reference value :  1.77002e-04
 Reference value :  1.77002e-04
 Reference value :  1.77003e-04
 Reference value :  1.77004e-04
 Reference value :  1.77005e-04
 Reference value :  1.77006e-04
 Reference value :  1.77007e-04
 Reference value :  1.77007e-04
 Reference value :  1.77008e-04
 Reference value :  1.77009e-04
 Reference value :  1.77010e-04
 Reference value :  1.77012e-04
 Reference value :  1.77015e-04
 Reference value :  1.77017e-04
 Reference value :  1.77021e-04
 Reference value :  1.77024e-04
 Reference value :  1.77027e-04
 Reference value :  1.77029e-04
 Reference value :  1.77031e-04
 Reference value :  1.77033e-04
 Reference value :  1.77035e-04
 Reference value :  1.77038e-04
 Reference value :  1.77041e-04
 Reference value :  1.77045e-04
 Reference value :  1.77052e-04
 Reference value :  1.77064e-04
 Reference value :  1.77078e-04
 Reference value :  1.77103e-04
 Reference value :  1.77143e-04
 Reference value :  1.77217e-04
 Reference value :  1.77250e-04
 Reference value :  1.77250e-04
 Reference value :  1.77250e-04
 Reference value :  1.77250e-04
 Reference value :  1.77250e-04
 Reference value :  1.77250e-04
 Reference value :  1.77250e-04
 Reference value :  1.77250e-04
 Reference value :  1.77250e-04
 Reference value :  1.77250e-04
 Reference value :  1.77250e-04
 Reference value :  1.77250e-04
 Reference value :  1.77250e-04
 Reference value :  1.77250e-04
 Reference value :  1.77251e-04
 Reference value :  1.77251e-04
 Reference value :  1.77251e-04
 Reference value :  1.77252e-04
 Reference value :  1.77252e-04
 Reference value :  1.77253e-04
 Reference value :  1.77254e-04
 Reference value :  1.77255e-04
 Reference value :  1.77256e-04
 Reference value :  1.77257e-04
 Reference value :  1.77258e-04
 Reference value :  1.77259e-04
 Reference value :  1.77260e-04
 Reference value :  1.77262e-04
 Reference value :  1.77264e-04
 Reference value :  1.77268e-04
 Reference value :  1.77274e-04
 Reference value :  1.77286e-04
 Reference value :  1.77307e-04
 Reference value :  1.77349e-04
 Reference value :  1.77403e-04
 Reference value :  1.77476e-04
 Reference value :  1.77500e-04
 Reference value :  1.77500e-04
 Reference value :  1.77500e-04
 Reference value :  1.77500e-04
 Reference value :  1.77500e-04
 Reference value :  1.77500e-04
 Reference value :  1.77500e-04
 Reference value :  1.77500e-04
 Reference value :  1.77500e-04
 Reference value :  1.77500e-04
 Reference value :  1.77500e-04
 Reference value :  1.77500e-04
 Reference value :  1.77500e-04
 Reference value :  1.77500e-04
 Reference value :  1.77501e-04
 Reference value :  1.77501e-04
 Reference value :  1.77502e-04
 Reference value :  1.77502e-04
 Reference value :  1.77503e-04
 Reference value :  1.77504e-04
 Reference value :  1.77505e-04
 Reference value :  1.77506e-04
 Reference value :  1.77507e-04
 Reference value :  1.77508e-04
 Reference value :  1.77509e-04
 Reference value :  1.77511e-04
 Reference value :  1.77513e-04
 Reference value :  1.77515e-04
 Reference value :  1.77516e-04
 Reference value :  1.77519e-04
 Reference value :  1.77521e-04
 Reference value :  1.77525e-04
 Reference value :  1.77531e-04
 Reference value :  1.77539e-04
 Reference value :  1.77547e-04
 Reference value :  1.77560e-04
 Reference value :  1.77572e-04
 Reference value :  1.77598e-04
 Reference value :  1.77636e-04
 Reference value :  1.77702e-04
 Reference value :  1.77750e-04
 Reference value :  1.77750e-04
 Reference value :  1.77750e-04
 Reference value :  1.77750e-04
 Reference value :  1.77750e-04
 Reference value :  1.77750e-04
 Reference value :  1.77750e-04
 Reference value :  1.77750e-04
 Reference value :  1.77750e-04
 Reference value :  1.77750e-04
 Reference value :  1.77750e-04
 Reference value :  1.77750e-04
 Reference value :  1.77750e-04
 Reference value :  1.77750e-04
 Reference value :  1.77751e-04
 Reference value :  1.77751e-04
 Reference value :  1.77751e-04
 Reference value :  1.77752e-04
 Reference value :  1.77752e-04
 Reference value :  1.77753e-04
 Reference value :  1.77754e-04
 Reference value :  1.77755e-04
 Reference value :  1.77756e-04
 Reference value :  1.77757e-04
 Reference value :  1.77758e-04
 Reference value :  1.77759e-04
 Reference value :  1.77760e-04
 Reference value :  1.77761e-04
 Reference value :  1.77762e-04
 Reference value :  1.77763e-04
 Reference value :  1.77765e-04
 Reference value :  1.77767e-04
 Reference value :  1.77770e-04
 Reference value :  1.77774e-04
 Reference value :  1.77781e-04
 Reference value :  1.77794e-04
 Reference value :  1.77815e-04
 Reference value :  1.77852e-04
 Reference value :  1.77927e-04
 Reference value :  1.78000e-04
 Reference value :  1.78000e-04
 Reference value :  1.78000e-04
 Reference value :  1.78000e-04
 Reference value :  1.78000e-04
 Reference value :  1.78000e-04
 Reference value :  1.78000e-04
 Reference value :  1.78000e-04
 Reference value :  1.78000e-04
 Reference value :  1.78000e-04
 Reference value :  1.78000e-04
 Reference value :  1.78000e-04
 Reference value :  1.78000e-04
 Reference value :  1.78000e-04
 Reference value :  1.78001e-04
 Reference value :  1.78001e-04
 Reference value :  1.78002e-04
 Reference value :  1.78002e-04
 Reference value :  1.78003e-04
 Reference value :  1.78004e-04
 Reference value :  1.78005e-04
 Reference value :  1.78006e-04
 Reference value :  1.78007e-04
 Reference value :  1.78007e-04
 Reference value :  1.78008e-04
 Reference value :  1.78009e-04
 Reference value :  1.78010e-04
 Reference value :  1.78012e-04
 Reference value :  1.78013e-04
 Reference value :  1.78014e-04
 Reference value :  1.78016e-04
 Reference value :  1.78017e-04
 Reference value :  1.78019e-04
 Reference value :  1.78020e-04
 Reference value :  1.78022e-04
 Reference value :  1.78024e-04
 Reference value :  1.78025e-04
 Reference value :  1.78026e-04
 Reference value :  1.78028e-04
 Reference value :  1.78031e-04
 Reference value :  1.78036e-04
 Reference value :  1.78047e-04
 Reference value :  1.78057e-04
 Reference value :  1.78064e-04
 Reference value :  1.78072e-04
 Reference value :  1.78081e-04
 Reference value :  1.78090e-04
 Reference value :  1.78101e-04
 Reference value :  1.78123e-04
 Reference value :  1.78154e-04
 Reference value :  1.78213e-04
 Reference value :  1.78250e-04
 Reference value :  1.78250e-04
 Reference value :  1.78250e-04
 Reference value :  1.78250e-04
 Reference value :  1.78250e-04
 Reference value :  1.78250e-04
 Reference value :  1.78250e-04
 Reference value :  1.78250e-04
 Reference value :  1.78250e-04
 Reference value :  1.78250e-04
 Reference value :  1.78250e-04
 Reference value :  1.78250e-04
 Reference value :  1.78250e-04
 Reference value :  1.78250e-04
 Reference value :  1.78251e-04
 Reference value :  1.78251e-04
 Reference value :  1.78251e-04
 Reference value :  1.78252e-04
 Reference value :  1.78253e-04
 Reference value :  1.78253e-04
 Reference value :  1.78254e-04
 Reference value :  1.78255e-04
 Reference value :  1.78257e-04
 Reference value :  1.78258e-04
 Reference value :  1.78260e-04
 Reference value :  1.78262e-04
 Reference value :  1.78264e-04
 Reference value :  1.78268e-04
 Reference value :  1.78273e-04
 Reference value :  1.78282e-04
 Reference value :  1.78296e-04
 Reference value :  1.78324e-04
 Reference value :  1.78379e-04
 Reference value :  1.78482e-04
 Reference value :  1.78500e-04
No. of Data Rows : 28875
ngspice-44 done
