
Note: Compatibility modes selected: hs a


Circuit: ** sch_path: /home/ece/cace/sar-adc-using-sky130-pdk/runs/run_2025-09-10_21-43-17/parameters/dnl/run_0/sar_output_dnl.sch

option SCALE: Scale is set to 1e-06 for instance and model parameters
option SCALE: Scale is set to 1e-06 for instance and model parameters
option SCALE: Scale is set to 1e-06 for instance and model parameters
option SCALE: Scale is set to 1e-06 for instance and model parameters
Doing analysis at TEMP = 27.000000 and TNOM = 27.000000

Using KLU as Direct Linear Solver
Operating point simulation skipped by 'uic',
  now using transient initial conditions.
 Reference value :  1.00000e-12
 Reference value :  1.02772e-12
 Reference value :  1.08316e-12
 Reference value :  1.19404e-12
 Reference value :  1.33846e-12
 Reference value :  1.62730e-12
 Reference value :  2.20497e-12
 Reference value :  3.04347e-12
 Reference value :  3.95006e-12
 Reference value :  5.16993e-12
 Reference value :  6.91542e-12
 Reference value :  1.00687e-11
 Reference value :  1.37648e-11
 Reference value :  2.04581e-11
 Reference value :  2.74079e-11
 Reference value :  3.62895e-11
 Reference value :  4.72817e-11
 Reference value :  6.41058e-11
 Reference value :  8.47766e-11
 Reference value :  1.00000e-10
 Reference value :  1.01254e-10
 Reference value :  1.03762e-10
 Reference value :  1.08779e-10
 Reference value :  1.18811e-10
 Reference value :  1.38876e-10
 Reference value :  1.79007e-10
 Reference value :  2.59267e-10
 Reference value :  4.11019e-10
 Reference value :  5.76531e-10
 Reference value :  8.45075e-10
 Reference value :  1.20943e-09
 Reference value :  1.73587e-09
 Reference value :  2.47768e-09
 Reference value :  3.25732e-09
 Reference value :  4.27465e-09
 Reference value :  5.31423e-09
 Reference value :  6.25486e-09
 Reference value :  7.61489e-09
 Reference value :  8.95229e-09
 Reference value :  1.00948e-08
 Reference value :  1.10105e-08
 Reference value :  1.19922e-08
 Reference value :  1.28833e-08
 Reference value :  1.41289e-08
 Reference value :  1.59567e-08
 Reference value :  1.86438e-08
 Reference value :  2.27671e-08
 Reference value :  2.74581e-08
 Reference value :  3.13167e-08
 Reference value :  3.53502e-08
 Reference value :  3.92004e-08
 Reference value :  4.33030e-08
 Reference value :  5.15081e-08
 Reference value :  6.77838e-08
 Reference value :  9.43417e-08
 Reference value :  1.47457e-07
 Reference value :  2.09235e-07
 Reference value :  2.50100e-07
 Reference value :  2.50110e-07
 Reference value :  2.50130e-07
 Reference value :  2.50170e-07
 Reference value :  2.50200e-07
 Reference value :  2.50201e-07
 Reference value :  2.50202e-07
 Reference value :  2.50204e-07
 Reference value :  2.50208e-07
 Reference value :  2.50216e-07
 Reference value :  2.50233e-07
 Reference value :  2.50267e-07
 Reference value :  2.50335e-07
 Reference value :  2.50428e-07
 Reference value :  2.50611e-07
 Reference value :  2.50792e-07
 Reference value :  2.51135e-07
 Reference value :  2.51558e-07
 Reference value :  2.52259e-07
 Reference value :  2.52900e-07
 Reference value :  2.53739e-07
 Reference value :  2.54754e-07
 Reference value :  2.55923e-07
 Reference value :  2.57000e-07
 Reference value :  2.58032e-07
 Reference value :  2.59197e-07
 Reference value :  2.60299e-07
 Reference value :  2.62113e-07
 Reference value :  2.64722e-07
 Reference value :  2.67420e-07
 Reference value :  2.72043e-07
 Reference value :  2.78806e-07
 Reference value :  2.92331e-07
 Reference value :  3.19383e-07
 Reference value :  3.70340e-07
 Reference value :  4.72254e-07
 Reference value :  5.00000e-07
 Reference value :  5.00010e-07
 Reference value :  5.00030e-07
 Reference value :  5.00070e-07
 Reference value :  5.00100e-07
 Reference value :  5.00104e-07
 Reference value :  5.00113e-07
 Reference value :  5.00130e-07
 Reference value :  5.00164e-07
 Reference value :  5.00232e-07
 Reference value :  5.00369e-07
 Reference value :  5.00560e-07
 Reference value :  5.00941e-07
 Reference value :  5.01536e-07
 Reference value :  5.02163e-07
 Reference value :  5.02854e-07
 Reference value :  5.03676e-07
 Reference value :  5.04428e-07
 Reference value :  5.05342e-07
 Reference value :  5.06300e-07
 Reference value :  5.07291e-07
 Reference value :  5.08691e-07
 Reference value :  5.10115e-07
 Reference value :  5.12675e-07
 Reference value :  5.15600e-07
 Reference value :  5.17748e-07
 Reference value :  5.20194e-07
 Reference value :  5.22649e-07
 Reference value :  5.25203e-07
 Reference value :  5.28411e-07
 Reference value :  5.33033e-07
 Reference value :  5.39375e-07
 Reference value :  5.48758e-07
 Reference value :  5.67524e-07
 Reference value :  5.94943e-07
 Reference value :  6.46003e-07
 Reference value :  7.44579e-07
 Reference value :  7.50100e-07
 Reference value :  7.50110e-07
 Reference value :  7.50130e-07
 Reference value :  7.50170e-07
 Reference value :  7.50200e-07
 Reference value :  7.50201e-07
 Reference value :  7.50202e-07
 Reference value :  7.50205e-07
 Reference value :  7.50212e-07
 Reference value :  7.50224e-07
 Reference value :  7.50249e-07
 Reference value :  7.50298e-07
 Reference value :  7.50396e-07
 Reference value :  7.50594e-07
 Reference value :  7.50984e-07
 Reference value :  7.51569e-07
 Reference value :  7.52239e-07
 Reference value :  7.52985e-07
 Reference value :  7.53829e-07
 Reference value :  7.54923e-07
 Reference value :  7.55816e-07
 Reference value :  7.56877e-07
 Reference value :  7.57785e-07
 Reference value :  7.58768e-07
 Reference value :  7.59882e-07
 Reference value :  7.61132e-07
 Reference value :  7.63633e-07
 Reference value :  7.66447e-07
 Reference value :  7.70881e-07
 Reference value :  7.76848e-07
 Reference value :  7.88781e-07
 Reference value :  8.12649e-07
 Reference value :  8.60150e-07
 Reference value :  9.55152e-07
 Reference value :  1.00000e-06
 Reference value :  1.00001e-06
 Reference value :  1.00003e-06
 Reference value :  1.00007e-06
 Reference value :  1.00010e-06
 Reference value :  1.00010e-06
 Reference value :  1.00011e-06
 Reference value :  1.00013e-06
 Reference value :  1.00016e-06
 Reference value :  1.00023e-06
 Reference value :  1.00037e-06
 Reference value :  1.00056e-06
 Reference value :  1.00094e-06
 Reference value :  1.00153e-06
 Reference value :  1.00216e-06
 Reference value :  1.00285e-06
 Reference value :  1.00357e-06
 Reference value :  1.00432e-06
 Reference value :  1.00516e-06
 Reference value :  1.00607e-06
 Reference value :  1.00702e-06
 Reference value :  1.00795e-06
 Reference value :  1.00904e-06
 Reference value :  1.01001e-06
 Reference value :  1.01108e-06
 Reference value :  1.01259e-06
 Reference value :  1.01427e-06
 Reference value :  1.01717e-06
 Reference value :  1.02013e-06
 Reference value :  1.02249e-06
 Reference value :  1.02462e-06
 Reference value :  1.02615e-06
 Reference value :  1.02771e-06
 Reference value :  1.02917e-06
 Reference value :  1.03074e-06
 Reference value :  1.03251e-06
 Reference value :  1.03500e-06
 Reference value :  1.03757e-06
 Reference value :  1.04224e-06
 Reference value :  1.04907e-06
 Reference value :  1.05961e-06
 Reference value :  1.07738e-06
 Reference value :  1.10517e-06
 Reference value :  1.14496e-06
 Reference value :  1.22456e-06
 Reference value :  1.25010e-06
 Reference value :  1.25011e-06
 Reference value :  1.25013e-06
 Reference value :  1.25017e-06
 Reference value :  1.25020e-06
 Reference value :  1.25020e-06
 Reference value :  1.25020e-06
 Reference value :  1.25021e-06
 Reference value :  1.25021e-06
 Reference value :  1.25022e-06
 Reference value :  1.25025e-06
 Reference value :  1.25030e-06
 Reference value :  1.25040e-06
 Reference value :  1.25059e-06
 Reference value :  1.25094e-06
 Reference value :  1.25156e-06
 Reference value :  1.25219e-06
 Reference value :  1.25296e-06
 Reference value :  1.25378e-06
 Reference value :  1.25486e-06
 Reference value :  1.25579e-06
 Reference value :  1.25687e-06
 Reference value :  1.25800e-06
 Reference value :  1.25906e-06
 Reference value :  1.26088e-06
 Reference value :  1.26261e-06
 Reference value :  1.26545e-06
 Reference value :  1.26899e-06
 Reference value :  1.27436e-06
 Reference value :  1.28510e-06
 Reference value :  1.30371e-06
 Reference value :  1.33784e-06
 Reference value :  1.40610e-06
 Reference value :  1.50000e-06
 Reference value :  1.50001e-06
 Reference value :  1.50003e-06
 Reference value :  1.50007e-06
 Reference value :  1.50010e-06
 Reference value :  1.50010e-06
 Reference value :  1.50011e-06
 Reference value :  1.50013e-06
 Reference value :  1.50016e-06
 Reference value :  1.50023e-06
 Reference value :  1.50037e-06
 Reference value :  1.50056e-06
 Reference value :  1.50093e-06
 Reference value :  1.50161e-06
 Reference value :  1.50223e-06
 Reference value :  1.50291e-06
 Reference value :  1.50362e-06
 Reference value :  1.50438e-06
 Reference value :  1.50523e-06
 Reference value :  1.50615e-06
 Reference value :  1.50719e-06
 Reference value :  1.50853e-06
 Reference value :  1.50991e-06
 Reference value :  1.51148e-06
 Reference value :  1.51304e-06
 Reference value :  1.51463e-06
 Reference value :  1.51657e-06
 Reference value :  1.51844e-06
 Reference value :  1.52078e-06
 Reference value :  1.52293e-06
 Reference value :  1.52722e-06
 Reference value :  1.53579e-06
 Reference value :  1.54892e-06
 Reference value :  1.57518e-06
 Reference value :  1.62770e-06
 Reference value :  1.73274e-06
 Reference value :  1.75010e-06
 Reference value :  1.75011e-06
 Reference value :  1.75013e-06
 Reference value :  1.75017e-06
 Reference value :  1.75020e-06
 Reference value :  1.75020e-06
 Reference value :  1.75020e-06
 Reference value :  1.75021e-06
 Reference value :  1.75021e-06
 Reference value :  1.75022e-06
 Reference value :  1.75025e-06
 Reference value :  1.75030e-06
 Reference value :  1.75039e-06
 Reference value :  1.75059e-06
 Reference value :  1.75093e-06
 Reference value :  1.75154e-06
 Reference value :  1.75216e-06
 Reference value :  1.75295e-06
 Reference value :  1.75376e-06
 Reference value :  1.75483e-06
 Reference value :  1.75576e-06
 Reference value :  1.75682e-06
 Reference value :  1.75776e-06
 Reference value :  1.75875e-06
 Reference value :  1.75989e-06
 Reference value :  1.76117e-06
 Reference value :  1.76372e-06
 Reference value :  1.76652e-06
 Reference value :  1.77104e-06
 Reference value :  1.77711e-06
 Reference value :  1.78924e-06
 Reference value :  1.81350e-06
 Reference value :  1.86202e-06
 Reference value :  1.95907e-06
 Reference value :  2.00000e-06
 Reference value :  2.00001e-06
 Reference value :  2.00003e-06
 Reference value :  2.00007e-06
 Reference value :  2.00010e-06
 Reference value :  2.00010e-06
 Reference value :  2.00011e-06
 Reference value :  2.00013e-06
 Reference value :  2.00016e-06
 Reference value :  2.00023e-06
 Reference value :  2.00037e-06
 Reference value :  2.00055e-06
 Reference value :  2.00092e-06
 Reference value :  2.00160e-06
 Reference value :  2.00223e-06
 Reference value :  2.00291e-06
 Reference value :  2.00363e-06
 Reference value :  2.00439e-06
 Reference value :  2.00523e-06
 Reference value :  2.00615e-06
 Reference value :  2.00717e-06
 Reference value :  2.00818e-06
 Reference value :  2.00924e-06
 Reference value :  2.01025e-06
 Reference value :  2.01134e-06
 Reference value :  2.01279e-06
 Reference value :  2.01462e-06
 Reference value :  2.01758e-06
 Reference value :  2.02043e-06
 Reference value :  2.02282e-06
 Reference value :  2.02486e-06
 Reference value :  2.02692e-06
 Reference value :  2.02893e-06
 Reference value :  2.03101e-06
 Reference value :  2.03338e-06
 Reference value :  2.03588e-06
 Reference value :  2.03883e-06
 Reference value :  2.04329e-06
 Reference value :  2.04943e-06
 Reference value :  2.05701e-06
 Reference value :  2.06417e-06
 Reference value :  2.07184e-06
 Reference value :  2.07820e-06
 Reference value :  2.08307e-06
 Reference value :  2.08880e-06
 Reference value :  2.09480e-06
 Reference value :  2.10277e-06
 Reference value :  2.10941e-06
 Reference value :  2.11746e-06
 Reference value :  2.12860e-06
 Reference value :  2.14734e-06
 Reference value :  2.18483e-06
 Reference value :  2.25010e-06
 Reference value :  2.25011e-06
 Reference value :  2.25013e-06
 Reference value :  2.25017e-06
 Reference value :  2.25020e-06
 Reference value :  2.25020e-06
 Reference value :  2.25020e-06
 Reference value :  2.25021e-06
 Reference value :  2.25021e-06
 Reference value :  2.25022e-06
 Reference value :  2.25025e-06
 Reference value :  2.25030e-06
 Reference value :  2.25039e-06
 Reference value :  2.25059e-06
 Reference value :  2.25092e-06
 Reference value :  2.25154e-06
 Reference value :  2.25216e-06
 Reference value :  2.25295e-06
 Reference value :  2.25375e-06
 Reference value :  2.25483e-06
 Reference value :  2.25571e-06
 Reference value :  2.25674e-06
 Reference value :  2.25772e-06
 Reference value :  2.25875e-06
 Reference value :  2.26047e-06
 Reference value :  2.26209e-06
 Reference value :  2.26495e-06
 Reference value :  2.26809e-06
 Reference value :  2.27316e-06
 Reference value :  2.28274e-06
 Reference value :  2.30188e-06
 Reference value :  2.33832e-06
 Reference value :  2.41119e-06
 Reference value :  2.49780e-06
 Reference value :  2.50000e-06
 Reference value :  2.50001e-06
 Reference value :  2.50003e-06
 Reference value :  2.50007e-06
 Reference value :  2.50010e-06
 Reference value :  2.50010e-06
 Reference value :  2.50011e-06
 Reference value :  2.50013e-06
 Reference value :  2.50016e-06
 Reference value :  2.50023e-06
 Reference value :  2.50037e-06
 Reference value :  2.50055e-06
 Reference value :  2.50092e-06
 Reference value :  2.50160e-06
 Reference value :  2.50223e-06
 Reference value :  2.50286e-06
 Reference value :  2.50357e-06
 Reference value :  2.50431e-06
 Reference value :  2.50516e-06
 Reference value :  2.50607e-06
 Reference value :  2.50711e-06
 Reference value :  2.50845e-06
 Reference value :  2.50982e-06
 Reference value :  2.51139e-06
 Reference value :  2.51280e-06
 Reference value :  2.51427e-06
 Reference value :  2.51632e-06
 Reference value :  2.51822e-06
 Reference value :  2.52033e-06
 Reference value :  2.52308e-06
 Reference value :  2.52648e-06
 Reference value :  2.53212e-06
 Reference value :  2.54062e-06
 Reference value :  2.55510e-06
 Reference value :  2.58006e-06
 Reference value :  2.62270e-06
 Reference value :  2.70215e-06
 Reference value :  2.75010e-06
 Reference value :  2.75011e-06
 Reference value :  2.75013e-06
 Reference value :  2.75017e-06
 Reference value :  2.75020e-06
 Reference value :  2.75020e-06
 Reference value :  2.75020e-06
 Reference value :  2.75021e-06
 Reference value :  2.75021e-06
 Reference value :  2.75022e-06
 Reference value :  2.75025e-06
 Reference value :  2.75030e-06
 Reference value :  2.75040e-06
 Reference value :  2.75059e-06
 Reference value :  2.75094e-06
 Reference value :  2.75155e-06
 Reference value :  2.75218e-06
 Reference value :  2.75295e-06
 Reference value :  2.75377e-06
 Reference value :  2.75484e-06
 Reference value :  2.75575e-06
 Reference value :  2.75682e-06
 Reference value :  2.75775e-06
 Reference value :  2.75874e-06
 Reference value :  2.75988e-06
 Reference value :  2.76115e-06
 Reference value :  2.76246e-06
 Reference value :  2.76423e-06
 Reference value :  2.76650e-06
 Reference value :  2.76925e-06
 Reference value :  2.77296e-06
 Reference value :  2.77814e-06
 Reference value :  2.78849e-06
 Reference value :  2.80736e-06
 Reference value :  2.84510e-06
 Reference value :  2.92058e-06
 Reference value :  3.00000e-06
 Reference value :  3.00001e-06
 Reference value :  3.00003e-06
 Reference value :  3.00007e-06
 Reference value :  3.00010e-06
 Reference value :  3.00010e-06
 Reference value :  3.00011e-06
 Reference value :  3.00013e-06
 Reference value :  3.00016e-06
 Reference value :  3.00023e-06
 Reference value :  3.00037e-06
 Reference value :  3.00055e-06
 Reference value :  3.00092e-06
 Reference value :  3.00160e-06
 Reference value :  3.00223e-06
 Reference value :  3.00291e-06
 Reference value :  3.00362e-06
 Reference value :  3.00438e-06
 Reference value :  3.00522e-06
 Reference value :  3.00612e-06
 Reference value :  3.00707e-06
 Reference value :  3.00793e-06
 Reference value :  3.00885e-06
 Reference value :  3.00983e-06
 Reference value :  3.01077e-06
 Reference value :  3.01210e-06
 Reference value :  3.01350e-06
 Reference value :  3.01566e-06
 Reference value :  3.01721e-06
 Reference value :  3.01892e-06
 Reference value :  3.02050e-06
 Reference value :  3.02230e-06
 Reference value :  3.02398e-06
 Reference value :  3.02549e-06
 Reference value :  3.02721e-06
 Reference value :  3.02872e-06
 Reference value :  3.03029e-06
 Reference value :  3.03218e-06
 Reference value :  3.03453e-06
 Reference value :  3.03716e-06
 Reference value :  3.04143e-06
 Reference value :  3.04806e-06
 Reference value :  3.05862e-06
 Reference value :  3.07456e-06
 Reference value :  3.08972e-06
 Reference value :  3.10409e-06
 Reference value :  3.11543e-06
 Reference value :  3.12034e-06
 Reference value :  3.12510e-06
 Reference value :  3.13014e-06
 Reference value :  3.13887e-06
 Reference value :  3.14907e-06
 Reference value :  3.16460e-06
 Reference value :  3.18807e-06
 Reference value :  3.22076e-06
 Reference value :  3.25010e-06
 Reference value :  3.25011e-06
 Reference value :  3.25013e-06
 Reference value :  3.25017e-06
 Reference value :  3.25020e-06
 Reference value :  3.25020e-06
 Reference value :  3.25020e-06
 Reference value :  3.25021e-06
 Reference value :  3.25021e-06
 Reference value :  3.25022e-06
 Reference value :  3.25025e-06
 Reference value :  3.25030e-06
 Reference value :  3.25040e-06
 Reference value :  3.25059e-06
 Reference value :  3.25094e-06
 Reference value :  3.25155e-06
 Reference value :  3.25218e-06
 Reference value :  3.25295e-06
 Reference value :  3.25377e-06
 Reference value :  3.25483e-06
 Reference value :  3.25578e-06
 Reference value :  3.25687e-06
 Reference value :  3.25798e-06
 Reference value :  3.25905e-06
 Reference value :  3.26084e-06
 Reference value :  3.26259e-06
 Reference value :  3.26540e-06
 Reference value :  3.26894e-06
 Reference value :  3.27425e-06
 Reference value :  3.28486e-06
 Reference value :  3.30334e-06
 Reference value :  3.33702e-06
 Reference value :  3.40439e-06
 Reference value :  3.50000e-06
 Reference value :  3.50001e-06
 Reference value :  3.50003e-06
 Reference value :  3.50007e-06
 Reference value :  3.50010e-06
 Reference value :  3.50010e-06
 Reference value :  3.50011e-06
 Reference value :  3.50013e-06
 Reference value :  3.50016e-06
 Reference value :  3.50023e-06
 Reference value :  3.50037e-06
 Reference value :  3.50056e-06
 Reference value :  3.50093e-06
 Reference value :  3.50161e-06
 Reference value :  3.50223e-06
 Reference value :  3.50291e-06
 Reference value :  3.50362e-06
 Reference value :  3.50438e-06
 Reference value :  3.50523e-06
 Reference value :  3.50615e-06
 Reference value :  3.50711e-06
 Reference value :  3.50847e-06
 Reference value :  3.50978e-06
 Reference value :  3.51139e-06
 Reference value :  3.51288e-06
 Reference value :  3.51443e-06
 Reference value :  3.51596e-06
 Reference value :  3.51767e-06
 Reference value :  3.51944e-06
 Reference value :  3.52137e-06
 Reference value :  3.52522e-06
 Reference value :  3.53289e-06
 Reference value :  3.54588e-06
 Reference value :  3.57184e-06
 Reference value :  3.61310e-06
 Reference value :  3.65405e-06
 Reference value :  3.70292e-06
 Reference value :  3.75010e-06
 Reference value :  3.75011e-06
 Reference value :  3.75013e-06
 Reference value :  3.75017e-06
 Reference value :  3.75020e-06
 Reference value :  3.75020e-06
 Reference value :  3.75020e-06
 Reference value :  3.75021e-06
 Reference value :  3.75021e-06
 Reference value :  3.75022e-06
 Reference value :  3.75025e-06
 Reference value :  3.75030e-06
 Reference value :  3.75040e-06
 Reference value :  3.75059e-06
 Reference value :  3.75094e-06
 Reference value :  3.75154e-06
 Reference value :  3.75218e-06
 Reference value :  3.75295e-06
 Reference value :  3.75377e-06
 Reference value :  3.75483e-06
 Reference value :  3.75576e-06
 Reference value :  3.75683e-06
 Reference value :  3.75778e-06
 Reference value :  3.75877e-06
 Reference value :  3.75991e-06
 Reference value :  3.76119e-06
 Reference value :  3.76254e-06
 Reference value :  3.76428e-06
 Reference value :  3.76668e-06
 Reference value :  3.76944e-06
 Reference value :  3.77328e-06
 Reference value :  3.77859e-06
 Reference value :  3.78921e-06
 Reference value :  3.81045e-06
 Reference value :  3.85293e-06
 Reference value :  3.89220e-06
 Reference value :  3.92965e-06
 Reference value :  3.97354e-06
 Reference value :  4.00000e-06
 Reference value :  4.00001e-06
 Reference value :  4.00003e-06
 Reference value :  4.00007e-06
 Reference value :  4.00010e-06
 Reference value :  4.00010e-06
 Reference value :  4.00011e-06
 Reference value :  4.00013e-06
 Reference value :  4.00016e-06
 Reference value :  4.00023e-06
 Reference value :  4.00037e-06
 Reference value :  4.00055e-06
 Reference value :  4.00092e-06
 Reference value :  4.00160e-06
 Reference value :  4.00223e-06
 Reference value :  4.00291e-06
 Reference value :  4.00363e-06
 Reference value :  4.00438e-06
 Reference value :  4.00523e-06
 Reference value :  4.00613e-06
 Reference value :  4.00697e-06
 Reference value :  4.00786e-06
 Reference value :  4.00876e-06
 Reference value :  4.00972e-06
 Reference value :  4.01066e-06
 Reference value :  4.01198e-06
 Reference value :  4.01335e-06
 Reference value :  4.01561e-06
 Reference value :  4.01721e-06
 Reference value :  4.01892e-06
 Reference value :  4.02048e-06
 Reference value :  4.02228e-06
 Reference value :  4.02358e-06
 Reference value :  4.02482e-06
 Reference value :  4.02650e-06
 Reference value :  4.02803e-06
 Reference value :  4.02965e-06
 Reference value :  4.03086e-06
 Reference value :  4.03224e-06
 Reference value :  4.03412e-06
 Reference value :  4.03587e-06
 Reference value :  4.03938e-06
 Reference value :  4.04381e-06
 Reference value :  4.05125e-06
 Reference value :  4.06104e-06
 Reference value :  4.08032e-06
 Reference value :  4.11060e-06
 Reference value :  4.14048e-06
 Reference value :  4.16337e-06
 Reference value :  4.19226e-06
 Reference value :  4.22877e-06
 Reference value :  4.25010e-06
 Reference value :  4.25011e-06
 Reference value :  4.25013e-06
 Reference value :  4.25017e-06
 Reference value :  4.25020e-06
 Reference value :  4.25020e-06
 Reference value :  4.25020e-06
 Reference value :  4.25021e-06
 Reference value :  4.25021e-06
 Reference value :  4.25022e-06
 Reference value :  4.25025e-06
 Reference value :  4.25030e-06
 Reference value :  4.25040e-06
 Reference value :  4.25059e-06
 Reference value :  4.25093e-06
 Reference value :  4.25154e-06
 Reference value :  4.25218e-06
 Reference value :  4.25294e-06
 Reference value :  4.25376e-06
 Reference value :  4.25483e-06
 Reference value :  4.25578e-06
 Reference value :  4.25687e-06
 Reference value :  4.25797e-06
 Reference value :  4.25904e-06
 Reference value :  4.26083e-06
 Reference value :  4.26257e-06
 Reference value :  4.26540e-06
 Reference value :  4.26893e-06
 Reference value :  4.27419e-06
 Reference value :  4.28470e-06
 Reference value :  4.30326e-06
 Reference value :  4.33691e-06
 Reference value :  4.40422e-06
 Reference value :  4.50000e-06
 Reference value :  4.50001e-06
 Reference value :  4.50003e-06
 Reference value :  4.50007e-06
 Reference value :  4.50010e-06
 Reference value :  4.50010e-06
 Reference value :  4.50011e-06
 Reference value :  4.50013e-06
 Reference value :  4.50016e-06
 Reference value :  4.50023e-06
 Reference value :  4.50037e-06
 Reference value :  4.50056e-06
 Reference value :  4.50092e-06
 Reference value :  4.50161e-06
 Reference value :  4.50223e-06
 Reference value :  4.50291e-06
 Reference value :  4.50362e-06
 Reference value :  4.50438e-06
 Reference value :  4.50523e-06
 Reference value :  4.50615e-06
 Reference value :  4.50711e-06
 Reference value :  4.50847e-06
 Reference value :  4.50978e-06
 Reference value :  4.51127e-06
 Reference value :  4.51298e-06
 Reference value :  4.51452e-06
 Reference value :  4.51599e-06
 Reference value :  4.51760e-06
 Reference value :  4.51927e-06
 Reference value :  4.52119e-06
 Reference value :  4.52501e-06
 Reference value :  4.53054e-06
 Reference value :  4.54158e-06
 Reference value :  4.56368e-06
 Reference value :  4.60746e-06
 Reference value :  4.69503e-06
 Reference value :  4.75010e-06
 Reference value :  4.75011e-06
 Reference value :  4.75013e-06
 Reference value :  4.75017e-06
 Reference value :  4.75020e-06
 Reference value :  4.75020e-06
 Reference value :  4.75020e-06
 Reference value :  4.75021e-06
 Reference value :  4.75021e-06
 Reference value :  4.75022e-06
 Reference value :  4.75025e-06
 Reference value :  4.75030e-06
 Reference value :  4.75039e-06
 Reference value :  4.75059e-06
 Reference value :  4.75092e-06
 Reference value :  4.75154e-06
 Reference value :  4.75216e-06
 Reference value :  4.75294e-06
 Reference value :  4.75375e-06
 Reference value :  4.75481e-06
 Reference value :  4.75574e-06
 Reference value :  4.75682e-06
 Reference value :  4.75777e-06
 Reference value :  4.75876e-06
 Reference value :  4.75990e-06
 Reference value :  4.76118e-06
 Reference value :  4.76372e-06
 Reference value :  4.76654e-06
 Reference value :  4.77106e-06
 Reference value :  4.77718e-06
 Reference value :  4.78943e-06
 Reference value :  4.81391e-06
 Reference value :  4.86287e-06
 Reference value :  4.96080e-06
 Reference value :  5.00000e-06
 Reference value :  5.00001e-06
 Reference value :  5.00003e-06
 Reference value :  5.00007e-06
 Reference value :  5.00010e-06
 Reference value :  5.00010e-06
 Reference value :  5.00011e-06
 Reference value :  5.00013e-06
 Reference value :  5.00016e-06
 Reference value :  5.00023e-06
 Reference value :  5.00037e-06
 Reference value :  5.00055e-06
 Reference value :  5.00092e-06
 Reference value :  5.00160e-06
 Reference value :  5.00223e-06
 Reference value :  5.00291e-06
 Reference value :  5.00364e-06
 Reference value :  5.00440e-06
 Reference value :  5.00525e-06
 Reference value :  5.00617e-06
 Reference value :  5.00719e-06
 Reference value :  5.00822e-06
 Reference value :  5.00909e-06
 Reference value :  5.01014e-06
 Reference value :  5.01115e-06
 Reference value :  5.01249e-06
 Reference value :  5.01444e-06
 Reference value :  5.01734e-06
 Reference value :  5.02026e-06
 Reference value :  5.02266e-06
 Reference value :  5.02460e-06
 Reference value :  5.02643e-06
 Reference value :  5.02846e-06
 Reference value :  5.03035e-06
 Reference value :  5.03279e-06
 Reference value :  5.03501e-06
 Reference value :  5.03851e-06
 Reference value :  5.04297e-06
 Reference value :  5.05038e-06
 Reference value :  5.06011e-06
 Reference value :  5.07071e-06
 Reference value :  5.08130e-06
 Reference value :  5.09040e-06
 Reference value :  5.10011e-06
 Reference value :  5.11282e-06
 Reference value :  5.12199e-06
 Reference value :  5.13130e-06
 Reference value :  5.13910e-06
 Reference value :  5.14763e-06
 Reference value :  5.16467e-06
 Reference value :  5.19675e-06
 Reference value :  5.22908e-06
 Reference value :  5.25010e-06
 Reference value :  5.25011e-06
 Reference value :  5.25013e-06
 Reference value :  5.25017e-06
 Reference value :  5.25020e-06
 Reference value :  5.25020e-06
 Reference value :  5.25020e-06
 Reference value :  5.25021e-06
 Reference value :  5.25021e-06
 Reference value :  5.25022e-06
 Reference value :  5.25025e-06
 Reference value :  5.25030e-06
 Reference value :  5.25039e-06
 Reference value :  5.25059e-06
 Reference value :  5.25092e-06
 Reference value :  5.25154e-06
 Reference value :  5.25216e-06
 Reference value :  5.25294e-06
 Reference value :  5.25374e-06
 Reference value :  5.25481e-06
 Reference value :  5.25578e-06
 Reference value :  5.25688e-06
 Reference value :  5.25797e-06
 Reference value :  5.25905e-06
 Reference value :  5.26083e-06
 Reference value :  5.26259e-06
 Reference value :  5.26540e-06
 Reference value :  5.26895e-06
 Reference value :  5.27425e-06
 Reference value :  5.28485e-06
 Reference value :  5.30335e-06
 Reference value :  5.33704e-06
 Reference value :  5.40442e-06
 Reference value :  5.50000e-06
 Reference value :  5.50001e-06
 Reference value :  5.50003e-06
 Reference value :  5.50007e-06
 Reference value :  5.50010e-06
 Reference value :  5.50010e-06
 Reference value :  5.50011e-06
 Reference value :  5.50013e-06
 Reference value :  5.50016e-06
 Reference value :  5.50023e-06
 Reference value :  5.50037e-06
 Reference value :  5.50056e-06
 Reference value :  5.50093e-06
 Reference value :  5.50161e-06
 Reference value :  5.50223e-06
 Reference value :  5.50291e-06
 Reference value :  5.50362e-06
 Reference value :  5.50438e-06
 Reference value :  5.50523e-06
 Reference value :  5.50615e-06
 Reference value :  5.50718e-06
 Reference value :  5.50851e-06
 Reference value :  5.50990e-06
 Reference value :  5.51134e-06
 Reference value :  5.51292e-06
 Reference value :  5.51459e-06
 Reference value :  5.51617e-06
 Reference value :  5.51780e-06
 Reference value :  5.51960e-06
 Reference value :  5.52163e-06
 Reference value :  5.52529e-06
 Reference value :  5.53066e-06
 Reference value :  5.54108e-06
 Reference value :  5.56070e-06
 Reference value :  5.59769e-06
 Reference value :  5.67168e-06
 Reference value :  5.75010e-06
 Reference value :  5.75011e-06
 Reference value :  5.75013e-06
 Reference value :  5.75017e-06
 Reference value :  5.75020e-06
 Reference value :  5.75020e-06
 Reference value :  5.75020e-06
 Reference value :  5.75021e-06
 Reference value :  5.75021e-06
 Reference value :  5.75022e-06
 Reference value :  5.75025e-06
 Reference value :  5.75030e-06
 Reference value :  5.75039e-06
 Reference value :  5.75059e-06
 Reference value :  5.75093e-06
 Reference value :  5.75154e-06
 Reference value :  5.75216e-06
 Reference value :  5.75294e-06
 Reference value :  5.75375e-06
 Reference value :  5.75481e-06
 Reference value :  5.75574e-06
 Reference value :  5.75681e-06
 Reference value :  5.75776e-06
 Reference value :  5.75876e-06
 Reference value :  5.75989e-06
 Reference value :  5.76116e-06
 Reference value :  5.76370e-06
 Reference value :  5.76651e-06
 Reference value :  5.77101e-06
 Reference value :  5.77708e-06
 Reference value :  5.78922e-06
 Reference value :  5.81349e-06
 Reference value :  5.86202e-06
 Reference value :  5.95910e-06
 Reference value :  6.00000e-06
 Reference value :  6.00001e-06
 Reference value :  6.00003e-06
 Reference value :  6.00007e-06
 Reference value :  6.00010e-06
 Reference value :  6.00010e-06
 Reference value :  6.00011e-06
 Reference value :  6.00013e-06
 Reference value :  6.00016e-06
 Reference value :  6.00023e-06
 Reference value :  6.00037e-06
 Reference value :  6.00055e-06
 Reference value :  6.00092e-06
 Reference value :  6.00160e-06
 Reference value :  6.00223e-06
 Reference value :  6.00291e-06
 Reference value :  6.00363e-06
 Reference value :  6.00439e-06
 Reference value :  6.00523e-06
 Reference value :  6.00615e-06
 Reference value :  6.00710e-06
 Reference value :  6.00812e-06
 Reference value :  6.00897e-06
 Reference value :  6.00997e-06
 Reference value :  6.01099e-06
 Reference value :  6.01228e-06
 Reference value :  6.01424e-06
 Reference value :  6.01725e-06
 Reference value :  6.02029e-06
 Reference value :  6.02269e-06
 Reference value :  6.02473e-06
 Reference value :  6.02668e-06
 Reference value :  6.02868e-06
 Reference value :  6.03068e-06
 Reference value :  6.03291e-06
 Reference value :  6.03520e-06
 Reference value :  6.03859e-06
 Reference value :  6.04299e-06
 Reference value :  6.04995e-06
 Reference value :  6.05698e-06
 Reference value :  6.06575e-06
 Reference value :  6.07469e-06
 Reference value :  6.08403e-06
 Reference value :  6.09317e-06
 Reference value :  6.10179e-06
 Reference value :  6.11153e-06
 Reference value :  6.12338e-06
 Reference value :  6.13055e-06
 Reference value :  6.13901e-06
 Reference value :  6.14902e-06
 Reference value :  6.16003e-06
 Reference value :  6.17027e-06
 Reference value :  6.18991e-06
 Reference value :  6.22195e-06
 Reference value :  6.25010e-06
 Reference value :  6.25011e-06
 Reference value :  6.25013e-06
 Reference value :  6.25017e-06
 Reference value :  6.25020e-06
 Reference value :  6.25020e-06
 Reference value :  6.25020e-06
 Reference value :  6.25021e-06
 Reference value :  6.25021e-06
 Reference value :  6.25022e-06
 Reference value :  6.25025e-06
 Reference value :  6.25030e-06
 Reference value :  6.25039e-06
 Reference value :  6.25059e-06
 Reference value :  6.25092e-06
 Reference value :  6.25154e-06
 Reference value :  6.25216e-06
 Reference value :  6.25294e-06
 Reference value :  6.25375e-06
 Reference value :  6.25481e-06
 Reference value :  6.25578e-06
 Reference value :  6.25687e-06
 Reference value :  6.25797e-06
 Reference value :  6.25905e-06
 Reference value :  6.26082e-06
 Reference value :  6.26258e-06
 Reference value :  6.26538e-06
 Reference value :  6.26892e-06
 Reference value :  6.27422e-06
 Reference value :  6.28480e-06
 Reference value :  6.30322e-06
 Reference value :  6.33678e-06
 Reference value :  6.40389e-06
 Reference value :  6.50000e-06
 Reference value :  6.50001e-06
 Reference value :  6.50003e-06
 Reference value :  6.50007e-06
 Reference value :  6.50010e-06
 Reference value :  6.50010e-06
 Reference value :  6.50011e-06
 Reference value :  6.50013e-06
 Reference value :  6.50016e-06
 Reference value :  6.50023e-06
 Reference value :  6.50037e-06
 Reference value :  6.50056e-06
 Reference value :  6.50093e-06
 Reference value :  6.50161e-06
 Reference value :  6.50223e-06
 Reference value :  6.50291e-06
 Reference value :  6.50362e-06
 Reference value :  6.50438e-06
 Reference value :  6.50523e-06
 Reference value :  6.50615e-06
 Reference value :  6.50711e-06
 Reference value :  6.50847e-06
 Reference value :  6.50978e-06
 Reference value :  6.51142e-06
 Reference value :  6.51290e-06
 Reference value :  6.51445e-06
 Reference value :  6.51588e-06
 Reference value :  6.51747e-06
 Reference value :  6.51913e-06
 Reference value :  6.52102e-06
 Reference value :  6.52481e-06
 Reference value :  6.53048e-06
 Reference value :  6.54182e-06
 Reference value :  6.56450e-06
 Reference value :  6.60985e-06
 Reference value :  6.70056e-06
 Reference value :  6.75010e-06
 Reference value :  6.75011e-06
 Reference value :  6.75013e-06
 Reference value :  6.75017e-06
 Reference value :  6.75020e-06
 Reference value :  6.75020e-06
 Reference value :  6.75020e-06
 Reference value :  6.75021e-06
 Reference value :  6.75021e-06
 Reference value :  6.75022e-06
 Reference value :  6.75025e-06
 Reference value :  6.75030e-06
 Reference value :  6.75039e-06
 Reference value :  6.75059e-06
 Reference value :  6.75093e-06
 Reference value :  6.75154e-06
 Reference value :  6.75216e-06
 Reference value :  6.75294e-06
 Reference value :  6.75375e-06
 Reference value :  6.75481e-06
 Reference value :  6.75574e-06
 Reference value :  6.75681e-06
 Reference value :  6.75776e-06
 Reference value :  6.75875e-06
 Reference value :  6.75989e-06
 Reference value :  6.76116e-06
 Reference value :  6.76370e-06
 Reference value :  6.76650e-06
 Reference value :  6.77101e-06
 Reference value :  6.77706e-06
 Reference value :  6.78917e-06
 Reference value :  6.81339e-06
 Reference value :  6.86182e-06
 Reference value :  6.95867e-06
 Reference value :  7.00000e-06
 Reference value :  7.00001e-06
 Reference value :  7.00003e-06
 Reference value :  7.00007e-06
 Reference value :  7.00010e-06
 Reference value :  7.00010e-06
 Reference value :  7.00011e-06
 Reference value :  7.00013e-06
 Reference value :  7.00016e-06
 Reference value :  7.00023e-06
 Reference value :  7.00037e-06
 Reference value :  7.00055e-06
 Reference value :  7.00092e-06
 Reference value :  7.00160e-06
 Reference value :  7.00223e-06
 Reference value :  7.00291e-06
 Reference value :  7.00363e-06
 Reference value :  7.00439e-06
 Reference value :  7.00523e-06
 Reference value :  7.00615e-06
 Reference value :  7.00717e-06
 Reference value :  7.00818e-06
 Reference value :  7.00904e-06
 Reference value :  7.01006e-06
 Reference value :  7.01108e-06
 Reference value :  7.01240e-06
 Reference value :  7.01436e-06
 Reference value :  7.01723e-06
 Reference value :  7.02046e-06
 Reference value :  7.02288e-06
 Reference value :  7.02508e-06
 Reference value :  7.02725e-06
 Reference value :  7.02925e-06
 Reference value :  7.03145e-06
 Reference value :  7.03381e-06
 Reference value :  7.03638e-06
 Reference value :  7.03932e-06
 Reference value :  7.04387e-06
 Reference value :  7.04920e-06
 Reference value :  7.05540e-06
 Reference value :  7.06368e-06
 Reference value :  7.07429e-06
 Reference value :  7.09550e-06
 Reference value :  7.11678e-06
 Reference value :  7.14910e-06
 Reference value :  7.17571e-06
 Reference value :  7.20678e-06
 Reference value :  7.23958e-06
 Reference value :  7.25010e-06
 Reference value :  7.25011e-06
 Reference value :  7.25013e-06
 Reference value :  7.25017e-06
 Reference value :  7.25020e-06
 Reference value :  7.25020e-06
 Reference value :  7.25020e-06
 Reference value :  7.25021e-06
 Reference value :  7.25021e-06
 Reference value :  7.25022e-06
 Reference value :  7.25025e-06
 Reference value :  7.25030e-06
 Reference value :  7.25039e-06
 Reference value :  7.25059e-06
 Reference value :  7.25093e-06
 Reference value :  7.25154e-06
 Reference value :  7.25217e-06
 Reference value :  7.25294e-06
 Reference value :  7.25375e-06
 Reference value :  7.25482e-06
 Reference value :  7.25572e-06
 Reference value :  7.25678e-06
 Reference value :  7.25780e-06
 Reference value :  7.25884e-06
 Reference value :  7.26058e-06
 Reference value :  7.26222e-06
 Reference value :  7.26504e-06
 Reference value :  7.26831e-06
 Reference value :  7.27338e-06
 Reference value :  7.28353e-06
 Reference value :  7.30243e-06
 Reference value :  7.33867e-06
 Reference value :  7.41115e-06
 Reference value :  7.50000e-06
 Reference value :  7.50001e-06
 Reference value :  7.50003e-06
 Reference value :  7.50007e-06
 Reference value :  7.50010e-06
 Reference value :  7.50010e-06
 Reference value :  7.50011e-06
 Reference value :  7.50013e-06
 Reference value :  7.50016e-06
 Reference value :  7.50023e-06
 Reference value :  7.50037e-06
 Reference value :  7.50056e-06
 Reference value :  7.50093e-06
 Reference value :  7.50152e-06
 Reference value :  7.50214e-06
 Reference value :  7.50284e-06
 Reference value :  7.50356e-06
 Reference value :  7.50432e-06
 Reference value :  7.50517e-06
 Reference value :  7.50609e-06
 Reference value :  7.50714e-06
 Reference value :  7.50847e-06
 Reference value :  7.50985e-06
 Reference value :  7.51155e-06
 Reference value :  7.51308e-06
 Reference value :  7.51466e-06
 Reference value :  7.51609e-06
 Reference value :  7.51771e-06
 Reference value :  7.51931e-06
 Reference value :  7.52118e-06
 Reference value :  7.52491e-06
 Reference value :  7.53120e-06
 Reference value :  7.54377e-06
 Reference value :  7.56893e-06
 Reference value :  7.61923e-06
 Reference value :  7.71984e-06
 Reference value :  7.75010e-06
 Reference value :  7.75011e-06
 Reference value :  7.75013e-06
 Reference value :  7.75017e-06
 Reference value :  7.75020e-06
 Reference value :  7.75020e-06
 Reference value :  7.75020e-06
 Reference value :  7.75021e-06
 Reference value :  7.75021e-06
 Reference value :  7.75022e-06
 Reference value :  7.75025e-06
 Reference value :  7.75030e-06
 Reference value :  7.75039e-06
 Reference value :  7.75059e-06
 Reference value :  7.75093e-06
 Reference value :  7.75154e-06
 Reference value :  7.75217e-06
 Reference value :  7.75294e-06
 Reference value :  7.75375e-06
 Reference value :  7.75482e-06
 Reference value :  7.75571e-06
 Reference value :  7.75675e-06
 Reference value :  7.75766e-06
 Reference value :  7.75864e-06
 Reference value :  7.75976e-06
 Reference value :  7.76102e-06
 Reference value :  7.76353e-06
 Reference value :  7.76625e-06
 Reference value :  7.77068e-06
 Reference value :  7.77645e-06
 Reference value :  7.78798e-06
 Reference value :  7.81105e-06
 Reference value :  7.85719e-06
 Reference value :  7.94946e-06
 Reference value :  8.00000e-06
 Reference value :  8.00001e-06
 Reference value :  8.00003e-06
 Reference value :  8.00007e-06
 Reference value :  8.00010e-06
 Reference value :  8.00010e-06
 Reference value :  8.00011e-06
 Reference value :  8.00013e-06
 Reference value :  8.00016e-06
 Reference value :  8.00023e-06
 Reference value :  8.00037e-06
 Reference value :  8.00055e-06
 Reference value :  8.00092e-06
 Reference value :  8.00151e-06
 Reference value :  8.00214e-06
 Reference value :  8.00284e-06
 Reference value :  8.00356e-06
 Reference value :  8.00433e-06
 Reference value :  8.00517e-06
 Reference value :  8.00609e-06
 Reference value :  8.00702e-06
 Reference value :  8.00802e-06
 Reference value :  8.00897e-06
 Reference value :  8.00995e-06
 Reference value :  8.01097e-06
 Reference value :  8.01231e-06
 Reference value :  8.01413e-06
 Reference value :  8.01685e-06
 Reference value :  8.02022e-06
 Reference value :  8.02271e-06
 Reference value :  8.02546e-06
 Reference value :  8.02813e-06
 Reference value :  8.03121e-06
 Reference value :  8.03586e-06
 Reference value :  8.04193e-06
 Reference value :  8.05211e-06
 Reference value :  8.06822e-06
 Reference value :  8.09503e-06
 Reference value :  8.14682e-06
 Reference value :  8.24910e-06
 Reference value :  8.25010e-06
 Reference value :  8.25011e-06
 Reference value :  8.25013e-06
 Reference value :  8.25017e-06
 Reference value :  8.25020e-06
 Reference value :  8.25020e-06
 Reference value :  8.25020e-06
 Reference value :  8.25021e-06
 Reference value :  8.25021e-06
 Reference value :  8.25022e-06
 Reference value :  8.25025e-06
 Reference value :  8.25030e-06
 Reference value :  8.25039e-06
 Reference value :  8.25059e-06
 Reference value :  8.25097e-06
 Reference value :  8.25154e-06
 Reference value :  8.25221e-06
 Reference value :  8.25295e-06
 Reference value :  8.25379e-06
 Reference value :  8.25485e-06
 Reference value :  8.25616e-06
 Reference value :  8.25753e-06
 Reference value :  8.25911e-06
 Reference value :  8.26083e-06
 Reference value :  8.26340e-06
 Reference value :  8.26637e-06
 Reference value :  8.27042e-06
 Reference value :  8.27625e-06
 Reference value :  8.28791e-06
 Reference value :  8.31124e-06
 Reference value :  8.35744e-06
 Reference value :  8.44984e-06
 Reference value :  8.50000e-06
 Reference value :  8.50000e-06
 Reference value :  8.50000e-06
 Reference value :  8.50000e-06
 Reference value :  8.50000e-06
 Reference value :  8.50000e-06
 Reference value :  8.50000e-06
 Reference value :  8.50000e-06
 Reference value :  8.50000e-06
 Reference value :  8.50001e-06
 Reference value :  8.50001e-06
 Reference value :  8.50002e-06
 Reference value :  8.50004e-06
 Reference value :  8.50008e-06
 Reference value :  8.50010e-06
 Reference value :  8.50010e-06
 Reference value :  8.50011e-06
 Reference value :  8.50012e-06
 Reference value :  8.50014e-06
 Reference value :  8.50018e-06
 Reference value :  8.50027e-06
 Reference value :  8.50043e-06
 Reference value :  8.50077e-06
 Reference value :  8.50132e-06
 Reference value :  8.50220e-06
 Reference value :  8.50303e-06
 Reference value :  8.50371e-06
 Reference value :  8.50456e-06
 Reference value :  8.50538e-06
 Reference value :  8.50639e-06
 Reference value :  8.50750e-06
 Reference value :  8.50873e-06
 Reference value :  8.51058e-06
 Reference value :  8.51264e-06
 Reference value :  8.51428e-06
 Reference value :  8.51607e-06
 Reference value :  8.51842e-06
 Reference value :  8.52143e-06
 Reference value :  8.52436e-06
 Reference value :  8.53023e-06
 Reference value :  8.53710e-06
 Reference value :  8.54189e-06
 Reference value :  8.54588e-06
 Reference value :  8.54936e-06
 Reference value :  8.55248e-06
 Reference value :  8.55503e-06
 Reference value :  8.55748e-06
 Reference value :  8.55972e-06
 Reference value :  8.56188e-06
 Reference value :  8.56498e-06
 Reference value :  8.56844e-06
 Reference value :  8.57165e-06
 Reference value :  8.57709e-06
 Reference value :  8.58283e-06
 Reference value :  8.59236e-06
 Reference value :  8.60229e-06
 Reference value :  8.61708e-06
 Reference value :  8.63314e-06
 Reference value :  8.65697e-06
 Reference value :  8.68993e-06
 Reference value :  8.73484e-06
 Reference value :  8.75010e-06
 Reference value :  8.75011e-06
 Reference value :  8.75013e-06
 Reference value :  8.75017e-06
 Reference value :  8.75020e-06
 Reference value :  8.75020e-06
 Reference value :  8.75020e-06
 Reference value :  8.75021e-06
 Reference value :  8.75021e-06
 Reference value :  8.75022e-06
 Reference value :  8.75025e-06
 Reference value :  8.75030e-06
 Reference value :  8.75040e-06
 Reference value :  8.75059e-06
 Reference value :  8.75098e-06
 Reference value :  8.75155e-06
 Reference value :  8.75223e-06
 Reference value :  8.75299e-06
 Reference value :  8.75379e-06
 Reference value :  8.75491e-06
 Reference value :  8.75585e-06
 Reference value :  8.75690e-06
 Reference value :  8.75789e-06
 Reference value :  8.75892e-06
 Reference value :  8.76058e-06
 Reference value :  8.76226e-06
 Reference value :  8.76496e-06
 Reference value :  8.76836e-06
 Reference value :  8.77333e-06
 Reference value :  8.78326e-06
 Reference value :  8.80062e-06
 Reference value :  8.83181e-06
 Reference value :  8.89400e-06
 Reference value :  8.95867e-06
 Reference value :  9.00000e-06
 Reference value :  9.00001e-06
 Reference value :  9.00003e-06
 Reference value :  9.00007e-06
 Reference value :  9.00010e-06
 Reference value :  9.00010e-06
 Reference value :  9.00011e-06
 Reference value :  9.00013e-06
 Reference value :  9.00016e-06
 Reference value :  9.00023e-06
 Reference value :  9.00037e-06
 Reference value :  9.00056e-06
 Reference value :  9.00094e-06
 Reference value :  9.00153e-06
 Reference value :  9.00216e-06
 Reference value :  9.00286e-06
 Reference value :  9.00368e-06
 Reference value :  9.00443e-06
 Reference value :  9.00531e-06
 Reference value :  9.00625e-06
 Reference value :  9.00722e-06
 Reference value :  9.00866e-06
 Reference value :  9.01003e-06
 Reference value :  9.01255e-06
 Reference value :  9.01560e-06
 Reference value :  9.01778e-06
 Reference value :  9.02028e-06
 Reference value :  9.02276e-06
 Reference value :  9.02532e-06
 Reference value :  9.02848e-06
 Reference value :  9.03331e-06
 Reference value :  9.04002e-06
 Reference value :  9.04972e-06
 Reference value :  9.06914e-06
 Reference value :  9.09719e-06
 Reference value :  9.14888e-06
 Reference value :  9.24926e-06
 Reference value :  9.25010e-06
 Reference value :  9.25011e-06
 Reference value :  9.25013e-06
 Reference value :  9.25017e-06
 Reference value :  9.25020e-06
 Reference value :  9.25020e-06
 Reference value :  9.25020e-06
 Reference value :  9.25021e-06
 Reference value :  9.25021e-06
 Reference value :  9.25022e-06
 Reference value :  9.25025e-06
 Reference value :  9.25030e-06
 Reference value :  9.25040e-06
 Reference value :  9.25059e-06
 Reference value :  9.25098e-06
 Reference value :  9.25157e-06
 Reference value :  9.25224e-06
 Reference value :  9.25299e-06
 Reference value :  9.25383e-06
 Reference value :  9.25492e-06
 Reference value :  9.25581e-06
 Reference value :  9.25686e-06
 Reference value :  9.25777e-06
 Reference value :  9.25874e-06
 Reference value :  9.25991e-06
 Reference value :  9.26119e-06
 Reference value :  9.26376e-06
 Reference value :  9.26656e-06
 Reference value :  9.27108e-06
 Reference value :  9.27714e-06
 Reference value :  9.28927e-06
 Reference value :  9.31351e-06
 Reference value :  9.36200e-06
 Reference value :  9.45898e-06
 Reference value :  9.50000e-06
 Reference value :  9.50001e-06
 Reference value :  9.50003e-06
 Reference value :  9.50007e-06
 Reference value :  9.50010e-06
 Reference value :  9.50010e-06
 Reference value :  9.50011e-06
 Reference value :  9.50013e-06
 Reference value :  9.50016e-06
 Reference value :  9.50023e-06
 Reference value :  9.50037e-06
 Reference value :  9.50056e-06
 Reference value :  9.50094e-06
 Reference value :  9.50153e-06
 Reference value :  9.50216e-06
 Reference value :  9.50285e-06
 Reference value :  9.50357e-06
 Reference value :  9.50432e-06
 Reference value :  9.50516e-06
 Reference value :  9.50607e-06
 Reference value :  9.50702e-06
 Reference value :  9.50795e-06
 Reference value :  9.50904e-06
 Reference value :  9.51001e-06
 Reference value :  9.51108e-06
 Reference value :  9.51259e-06
 Reference value :  9.51428e-06
 Reference value :  9.51717e-06
 Reference value :  9.52014e-06
 Reference value :  9.52249e-06
 Reference value :  9.52467e-06
 Reference value :  9.52623e-06
 Reference value :  9.52779e-06
 Reference value :  9.52930e-06
 Reference value :  9.53089e-06
 Reference value :  9.53266e-06
 Reference value :  9.53513e-06
 Reference value :  9.53774e-06
 Reference value :  9.54240e-06
 Reference value :  9.54912e-06
 Reference value :  9.55946e-06
 Reference value :  9.57652e-06
 Reference value :  9.60476e-06
 Reference value :  9.64372e-06
 Reference value :  9.72164e-06
 Reference value :  9.75010e-06
 Reference value :  9.75011e-06
 Reference value :  9.75013e-06
 Reference value :  9.75017e-06
 Reference value :  9.75020e-06
 Reference value :  9.75020e-06
 Reference value :  9.75020e-06
 Reference value :  9.75021e-06
 Reference value :  9.75021e-06
 Reference value :  9.75022e-06
 Reference value :  9.75025e-06
 Reference value :  9.75030e-06
 Reference value :  9.75040e-06
 Reference value :  9.75059e-06
 Reference value :  9.75094e-06
 Reference value :  9.75156e-06
 Reference value :  9.75219e-06
 Reference value :  9.75296e-06
 Reference value :  9.75378e-06
 Reference value :  9.75486e-06
 Reference value :  9.75577e-06
 Reference value :  9.75684e-06
 Reference value :  9.75787e-06
 Reference value :  9.75892e-06
 Reference value :  9.76065e-06
 Reference value :  9.76232e-06
 Reference value :  9.76510e-06
 Reference value :  9.76848e-06
 Reference value :  9.77356e-06
 Reference value :  9.78371e-06
 Reference value :  9.80171e-06
 Reference value :  9.83439e-06
 Reference value :  9.89975e-06
 Reference value :  1.00000e-05
 Reference value :  1.00000e-05
 Reference value :  1.00000e-05
 Reference value :  1.00001e-05
 Reference value :  1.00001e-05
 Reference value :  1.00001e-05
 Reference value :  1.00001e-05
 Reference value :  1.00001e-05
 Reference value :  1.00002e-05
 Reference value :  1.00002e-05
 Reference value :  1.00004e-05
 Reference value :  1.00006e-05
 Reference value :  1.00009e-05
 Reference value :  1.00016e-05
 Reference value :  1.00022e-05
 Reference value :  1.00029e-05
 Reference value :  1.00036e-05
 Reference value :  1.00044e-05
 Reference value :  1.00052e-05
 Reference value :  1.00062e-05
 Reference value :  1.00072e-05
 Reference value :  1.00085e-05
 Reference value :  1.00099e-05
 Reference value :  1.00115e-05
 Reference value :  1.00130e-05
 Reference value :  1.00146e-05
 Reference value :  1.00166e-05
 Reference value :  1.00185e-05
 Reference value :  1.00208e-05
 Reference value :  1.00229e-05
 Reference value :  1.00273e-05
 Reference value :  1.00358e-05
 Reference value :  1.00491e-05
 Reference value :  1.00756e-05
 Reference value :  1.01285e-05
 Reference value :  1.02345e-05
 Reference value :  1.02501e-05
 Reference value :  1.02501e-05
 Reference value :  1.02501e-05
 Reference value :  1.02502e-05
 Reference value :  1.02502e-05
 Reference value :  1.02502e-05
 Reference value :  1.02502e-05
 Reference value :  1.02502e-05
 Reference value :  1.02502e-05
 Reference value :  1.02502e-05
 Reference value :  1.02502e-05
 Reference value :  1.02503e-05
 Reference value :  1.02504e-05
 Reference value :  1.02506e-05
 Reference value :  1.02509e-05
 Reference value :  1.02515e-05
 Reference value :  1.02522e-05
 Reference value :  1.02529e-05
 Reference value :  1.02538e-05
 Reference value :  1.02548e-05
 Reference value :  1.02558e-05
 Reference value :  1.02568e-05
 Reference value :  1.02578e-05
 Reference value :  1.02587e-05
 Reference value :  1.02599e-05
 Reference value :  1.02612e-05
 Reference value :  1.02637e-05
 Reference value :  1.02665e-05
 Reference value :  1.02710e-05
 Reference value :  1.02771e-05
 Reference value :  1.02892e-05
 Reference value :  1.03135e-05
 Reference value :  1.03620e-05
 Reference value :  1.04589e-05
 Reference value :  1.05000e-05
 Reference value :  1.05000e-05
 Reference value :  1.05000e-05
 Reference value :  1.05001e-05
 Reference value :  1.05001e-05
 Reference value :  1.05001e-05
 Reference value :  1.05001e-05
 Reference value :  1.05001e-05
 Reference value :  1.05002e-05
 Reference value :  1.05002e-05
 Reference value :  1.05004e-05
 Reference value :  1.05006e-05
 Reference value :  1.05009e-05
 Reference value :  1.05016e-05
 Reference value :  1.05022e-05
 Reference value :  1.05029e-05
 Reference value :  1.05036e-05
 Reference value :  1.05044e-05
 Reference value :  1.05052e-05
 Reference value :  1.05061e-05
 Reference value :  1.05072e-05
 Reference value :  1.05082e-05
 Reference value :  1.05092e-05
 Reference value :  1.05103e-05
 Reference value :  1.05113e-05
 Reference value :  1.05128e-05
 Reference value :  1.05146e-05
 Reference value :  1.05176e-05
 Reference value :  1.05204e-05
 Reference value :  1.05228e-05
 Reference value :  1.05249e-05
 Reference value :  1.05269e-05
 Reference value :  1.05289e-05
 Reference value :  1.05310e-05
 Reference value :  1.05334e-05
 Reference value :  1.05358e-05
 Reference value :  1.05388e-05
 Reference value :  1.05432e-05
 Reference value :  1.05494e-05
 Reference value :  1.05564e-05
 Reference value :  1.05639e-05
 Reference value :  1.05723e-05
 Reference value :  1.05800e-05
 Reference value :  1.05855e-05
 Reference value :  1.05917e-05
 Reference value :  1.05977e-05
 Reference value :  1.06048e-05
 Reference value :  1.06112e-05
 Reference value :  1.06189e-05
 Reference value :  1.06339e-05
 Reference value :  1.06554e-05
 Reference value :  1.06982e-05
 Reference value :  1.07501e-05
 Reference value :  1.07501e-05
 Reference value :  1.07501e-05
 Reference value :  1.07502e-05
 Reference value :  1.07502e-05
 Reference value :  1.07502e-05
 Reference value :  1.07502e-05
 Reference value :  1.07502e-05
 Reference value :  1.07502e-05
 Reference value :  1.07502e-05
 Reference value :  1.07502e-05
 Reference value :  1.07503e-05
 Reference value :  1.07504e-05
 Reference value :  1.07506e-05
 Reference value :  1.07509e-05
 Reference value :  1.07515e-05
 Reference value :  1.07522e-05
 Reference value :  1.07529e-05
 Reference value :  1.07538e-05
 Reference value :  1.07548e-05
 Reference value :  1.07557e-05
 Reference value :  1.07567e-05
 Reference value :  1.07577e-05
 Reference value :  1.07587e-05
 Reference value :  1.07604e-05
 Reference value :  1.07620e-05
 Reference value :  1.07649e-05
 Reference value :  1.07680e-05
 Reference value :  1.07730e-05
 Reference value :  1.07821e-05
 Reference value :  1.08004e-05
 Reference value :  1.08369e-05
 Reference value :  1.09100e-05
 Reference value :  1.09964e-05
 Reference value :  1.10000e-05
 Reference value :  1.10000e-05
 Reference value :  1.10000e-05
 Reference value :  1.10001e-05
 Reference value :  1.10001e-05
 Reference value :  1.10001e-05
 Reference value :  1.10001e-05
 Reference value :  1.10001e-05
 Reference value :  1.10002e-05
 Reference value :  1.10002e-05
 Reference value :  1.10004e-05
 Reference value :  1.10006e-05
 Reference value :  1.10009e-05
 Reference value :  1.10016e-05
 Reference value :  1.10022e-05
 Reference value :  1.10029e-05
 Reference value :  1.10036e-05
 Reference value :  1.10043e-05
 Reference value :  1.10052e-05
 Reference value :  1.10061e-05
 Reference value :  1.10071e-05
 Reference value :  1.10085e-05
 Reference value :  1.10098e-05
 Reference value :  1.10114e-05
 Reference value :  1.10128e-05
 Reference value :  1.10143e-05
 Reference value :  1.10163e-05
 Reference value :  1.10182e-05
 Reference value :  1.10203e-05
 Reference value :  1.10231e-05
 Reference value :  1.10264e-05
 Reference value :  1.10320e-05
 Reference value :  1.10403e-05
 Reference value :  1.10542e-05
 Reference value :  1.10783e-05
 Reference value :  1.11189e-05
 Reference value :  1.11941e-05
 Reference value :  1.12501e-05
 Reference value :  1.12501e-05
 Reference value :  1.12501e-05
 Reference value :  1.12502e-05
 Reference value :  1.12502e-05
 Reference value :  1.12502e-05
 Reference value :  1.12502e-05
 Reference value :  1.12502e-05
 Reference value :  1.12502e-05
 Reference value :  1.12502e-05
 Reference value :  1.12502e-05
 Reference value :  1.12503e-05
 Reference value :  1.12504e-05
 Reference value :  1.12506e-05
 Reference value :  1.12509e-05
 Reference value :  1.12515e-05
 Reference value :  1.12522e-05
 Reference value :  1.12529e-05
 Reference value :  1.12538e-05
 Reference value :  1.12548e-05
 Reference value :  1.12558e-05
 Reference value :  1.12568e-05
 Reference value :  1.12578e-05
 Reference value :  1.12587e-05
 Reference value :  1.12599e-05
 Reference value :  1.12611e-05
 Reference value :  1.12625e-05
 Reference value :  1.12642e-05
 Reference value :  1.12665e-05
 Reference value :  1.12693e-05
 Reference value :  1.12730e-05
 Reference value :  1.12782e-05
 Reference value :  1.12885e-05
 Reference value :  1.13074e-05
 Reference value :  1.13450e-05
 Reference value :  1.14204e-05
 Reference value :  1.15000e-05
 Reference value :  1.15000e-05
 Reference value :  1.15000e-05
 Reference value :  1.15001e-05
 Reference value :  1.15001e-05
 Reference value :  1.15001e-05
 Reference value :  1.15001e-05
 Reference value :  1.15001e-05
 Reference value :  1.15002e-05
 Reference value :  1.15002e-05
 Reference value :  1.15004e-05
 Reference value :  1.15006e-05
 Reference value :  1.15009e-05
 Reference value :  1.15016e-05
 Reference value :  1.15022e-05
 Reference value :  1.15029e-05
 Reference value :  1.15036e-05
 Reference value :  1.15044e-05
 Reference value :  1.15052e-05
 Reference value :  1.15061e-05
 Reference value :  1.15071e-05
 Reference value :  1.15079e-05
 Reference value :  1.15088e-05
 Reference value :  1.15098e-05
 Reference value :  1.15108e-05
 Reference value :  1.15121e-05
 Reference value :  1.15135e-05
 Reference value :  1.15157e-05
 Reference value :  1.15172e-05
 Reference value :  1.15189e-05
 Reference value :  1.15205e-05
 Reference value :  1.15223e-05
 Reference value :  1.15240e-05
 Reference value :  1.15255e-05
 Reference value :  1.15272e-05
 Reference value :  1.15287e-05
 Reference value :  1.15303e-05
 Reference value :  1.15322e-05
 Reference value :  1.15345e-05
 Reference value :  1.15372e-05
 Reference value :  1.15414e-05
 Reference value :  1.15480e-05
 Reference value :  1.15585e-05
 Reference value :  1.15746e-05
 Reference value :  1.15898e-05
 Reference value :  1.16041e-05
 Reference value :  1.16150e-05
 Reference value :  1.16205e-05
 Reference value :  1.16251e-05
 Reference value :  1.16301e-05
 Reference value :  1.16388e-05
 Reference value :  1.16470e-05
 Reference value :  1.16601e-05
 Reference value :  1.16759e-05
 Reference value :  1.16970e-05
 Reference value :  1.17259e-05
 Reference value :  1.17501e-05
 Reference value :  1.17501e-05
 Reference value :  1.17501e-05
 Reference value :  1.17502e-05
 Reference value :  1.17502e-05
 Reference value :  1.17502e-05
 Reference value :  1.17502e-05
 Reference value :  1.17502e-05
 Reference value :  1.17502e-05
 Reference value :  1.17502e-05
 Reference value :  1.17502e-05
 Reference value :  1.17503e-05
 Reference value :  1.17504e-05
 Reference value :  1.17506e-05
 Reference value :  1.17509e-05
 Reference value :  1.17515e-05
 Reference value :  1.17522e-05
 Reference value :  1.17529e-05
 Reference value :  1.17538e-05
 Reference value :  1.17548e-05
 Reference value :  1.17558e-05
 Reference value :  1.17569e-05
 Reference value :  1.17580e-05
 Reference value :  1.17591e-05
 Reference value :  1.17608e-05
 Reference value :  1.17626e-05
 Reference value :  1.17654e-05
 Reference value :  1.17689e-05
 Reference value :  1.17742e-05
 Reference value :  1.17848e-05
 Reference value :  1.18031e-05
 Reference value :  1.18364e-05
 Reference value :  1.19029e-05
 Reference value :  1.20000e-05
 Reference value :  1.20000e-05
 Reference value :  1.20000e-05
 Reference value :  1.20001e-05
 Reference value :  1.20001e-05
 Reference value :  1.20001e-05
 Reference value :  1.20001e-05
 Reference value :  1.20001e-05
 Reference value :  1.20002e-05
 Reference value :  1.20002e-05
 Reference value :  1.20004e-05
 Reference value :  1.20006e-05
 Reference value :  1.20009e-05
 Reference value :  1.20016e-05
 Reference value :  1.20022e-05
 Reference value :  1.20029e-05
 Reference value :  1.20036e-05
 Reference value :  1.20044e-05
 Reference value :  1.20052e-05
 Reference value :  1.20062e-05
 Reference value :  1.20071e-05
 Reference value :  1.20085e-05
 Reference value :  1.20098e-05
 Reference value :  1.20114e-05
 Reference value :  1.20129e-05
 Reference value :  1.20144e-05
 Reference value :  1.20160e-05
 Reference value :  1.20177e-05
 Reference value :  1.20194e-05
 Reference value :  1.20214e-05
 Reference value :  1.20252e-05
 Reference value :  1.20329e-05
 Reference value :  1.20458e-05
 Reference value :  1.20717e-05
 Reference value :  1.21236e-05
 Reference value :  1.22272e-05
 Reference value :  1.22501e-05
 Reference value :  1.22501e-05
 Reference value :  1.22501e-05
 Reference value :  1.22502e-05
 Reference value :  1.22502e-05
 Reference value :  1.22502e-05
 Reference value :  1.22502e-05
 Reference value :  1.22502e-05
 Reference value :  1.22502e-05
 Reference value :  1.22502e-05
 Reference value :  1.22502e-05
 Reference value :  1.22503e-05
 Reference value :  1.22504e-05
 Reference value :  1.22506e-05
 Reference value :  1.22509e-05
 Reference value :  1.22515e-05
 Reference value :  1.22522e-05
 Reference value :  1.22529e-05
 Reference value :  1.22538e-05
 Reference value :  1.22548e-05
 Reference value :  1.22557e-05
 Reference value :  1.22568e-05
 Reference value :  1.22578e-05
 Reference value :  1.22588e-05
 Reference value :  1.22599e-05
 Reference value :  1.22612e-05
 Reference value :  1.22637e-05
 Reference value :  1.22665e-05
 Reference value :  1.22711e-05
 Reference value :  1.22772e-05
 Reference value :  1.22894e-05
 Reference value :  1.23138e-05
 Reference value :  1.23626e-05
 Reference value :  1.24602e-05
 Reference value :  1.25000e-05
 Reference value :  1.25000e-05
 Reference value :  1.25000e-05
 Reference value :  1.25001e-05
 Reference value :  1.25001e-05
 Reference value :  1.25001e-05
 Reference value :  1.25001e-05
 Reference value :  1.25001e-05
 Reference value :  1.25002e-05
 Reference value :  1.25002e-05
 Reference value :  1.25004e-05
 Reference value :  1.25006e-05
 Reference value :  1.25009e-05
 Reference value :  1.25016e-05
 Reference value :  1.25022e-05
 Reference value :  1.25029e-05
 Reference value :  1.25036e-05
 Reference value :  1.25044e-05
 Reference value :  1.25052e-05
 Reference value :  1.25061e-05
 Reference value :  1.25071e-05
 Reference value :  1.25082e-05
 Reference value :  1.25091e-05
 Reference value :  1.25101e-05
 Reference value :  1.25112e-05
 Reference value :  1.25126e-05
 Reference value :  1.25145e-05
 Reference value :  1.25174e-05
 Reference value :  1.25202e-05
 Reference value :  1.25226e-05
 Reference value :  1.25245e-05
 Reference value :  1.25263e-05
 Reference value :  1.25283e-05
 Reference value :  1.25302e-05
 Reference value :  1.25324e-05
 Reference value :  1.25348e-05
 Reference value :  1.25381e-05
 Reference value :  1.25421e-05
 Reference value :  1.25477e-05
 Reference value :  1.25512e-05
 Reference value :  1.25554e-05
 Reference value :  1.25596e-05
 Reference value :  1.25667e-05
 Reference value :  1.25735e-05
 Reference value :  1.25871e-05
 Reference value :  1.26121e-05
 Reference value :  1.26384e-05
 Reference value :  1.26676e-05
 Reference value :  1.26981e-05
 Reference value :  1.27472e-05
 Reference value :  1.27501e-05
 Reference value :  1.27501e-05
 Reference value :  1.27501e-05
 Reference value :  1.27502e-05
 Reference value :  1.27502e-05
 Reference value :  1.27502e-05
 Reference value :  1.27502e-05
 Reference value :  1.27502e-05
 Reference value :  1.27502e-05
 Reference value :  1.27502e-05
 Reference value :  1.27502e-05
 Reference value :  1.27503e-05
 Reference value :  1.27504e-05
 Reference value :  1.27506e-05
 Reference value :  1.27509e-05
 Reference value :  1.27515e-05
 Reference value :  1.27522e-05
 Reference value :  1.27529e-05
 Reference value :  1.27537e-05
 Reference value :  1.27548e-05
 Reference value :  1.27557e-05
 Reference value :  1.27568e-05
 Reference value :  1.27579e-05
 Reference value :  1.27589e-05
 Reference value :  1.27607e-05
 Reference value :  1.27624e-05
 Reference value :  1.27653e-05
 Reference value :  1.27687e-05
 Reference value :  1.27739e-05
 Reference value :  1.27842e-05
 Reference value :  1.28031e-05
 Reference value :  1.28378e-05
 Reference value :  1.29071e-05
 Reference value :  1.30000e-05
 Reference value :  1.30000e-05
 Reference value :  1.30000e-05
 Reference value :  1.30001e-05
 Reference value :  1.30001e-05
 Reference value :  1.30001e-05
 Reference value :  1.30001e-05
 Reference value :  1.30001e-05
 Reference value :  1.30002e-05
 Reference value :  1.30002e-05
 Reference value :  1.30004e-05
 Reference value :  1.30006e-05
 Reference value :  1.30009e-05
 Reference value :  1.30016e-05
 Reference value :  1.30022e-05
 Reference value :  1.30029e-05
 Reference value :  1.30036e-05
 Reference value :  1.30043e-05
 Reference value :  1.30052e-05
 Reference value :  1.30061e-05
 Reference value :  1.30070e-05
 Reference value :  1.30084e-05
 Reference value :  1.30096e-05
 Reference value :  1.30112e-05
 Reference value :  1.30125e-05
 Reference value :  1.30139e-05
 Reference value :  1.30153e-05
 Reference value :  1.30170e-05
 Reference value :  1.30188e-05
 Reference value :  1.30207e-05
 Reference value :  1.30244e-05
 Reference value :  1.30318e-05
 Reference value :  1.30448e-05
 Reference value :  1.30708e-05
 Reference value :  1.31228e-05
 Reference value :  1.32268e-05
 Reference value :  1.32501e-05
 Reference value :  1.32501e-05
 Reference value :  1.32501e-05
 Reference value :  1.32502e-05
 Reference value :  1.32502e-05
 Reference value :  1.32502e-05
 Reference value :  1.32502e-05
 Reference value :  1.32502e-05
 Reference value :  1.32502e-05
 Reference value :  1.32502e-05
 Reference value :  1.32502e-05
 Reference value :  1.32503e-05
 Reference value :  1.32504e-05
 Reference value :  1.32506e-05
 Reference value :  1.32509e-05
 Reference value :  1.32515e-05
 Reference value :  1.32522e-05
 Reference value :  1.32529e-05
 Reference value :  1.32537e-05
 Reference value :  1.32548e-05
 Reference value :  1.32557e-05
 Reference value :  1.32568e-05
 Reference value :  1.32577e-05
 Reference value :  1.32587e-05
 Reference value :  1.32599e-05
 Reference value :  1.32611e-05
 Reference value :  1.32624e-05
 Reference value :  1.32642e-05
 Reference value :  1.32664e-05
 Reference value :  1.32692e-05
 Reference value :  1.32728e-05
 Reference value :  1.32779e-05
 Reference value :  1.32882e-05
 Reference value :  1.33047e-05
 Reference value :  1.33378e-05
 Reference value :  1.34040e-05
 Reference value :  1.35000e-05
 Reference value :  1.35000e-05
 Reference value :  1.35000e-05
 Reference value :  1.35001e-05
 Reference value :  1.35001e-05
 Reference value :  1.35001e-05
 Reference value :  1.35001e-05
 Reference value :  1.35001e-05
 Reference value :  1.35002e-05
 Reference value :  1.35002e-05
 Reference value :  1.35004e-05
 Reference value :  1.35006e-05
 Reference value :  1.35009e-05
 Reference value :  1.35016e-05
 Reference value :  1.35022e-05
 Reference value :  1.35029e-05
 Reference value :  1.35036e-05
 Reference value :  1.35044e-05
 Reference value :  1.35052e-05
 Reference value :  1.35061e-05
 Reference value :  1.35070e-05
 Reference value :  1.35079e-05
 Reference value :  1.35088e-05
 Reference value :  1.35098e-05
 Reference value :  1.35108e-05
 Reference value :  1.35122e-05
 Reference value :  1.35139e-05
 Reference value :  1.35154e-05
 Reference value :  1.35171e-05
 Reference value :  1.35188e-05
 Reference value :  1.35205e-05
 Reference value :  1.35223e-05
 Reference value :  1.35237e-05
 Reference value :  1.35250e-05
 Reference value :  1.35267e-05
 Reference value :  1.35284e-05
 Reference value :  1.35299e-05
 Reference value :  1.35320e-05
 Reference value :  1.35340e-05
 Reference value :  1.35369e-05
 Reference value :  1.35407e-05
 Reference value :  1.35477e-05
 Reference value :  1.35592e-05
 Reference value :  1.35729e-05
 Reference value :  1.35843e-05
 Reference value :  1.35974e-05
 Reference value :  1.36067e-05
 Reference value :  1.36174e-05
 Reference value :  1.36305e-05
 Reference value :  1.36452e-05
 Reference value :  1.36746e-05
 Reference value :  1.37068e-05
 Reference value :  1.37256e-05
 Reference value :  1.37501e-05
 Reference value :  1.37501e-05
 Reference value :  1.37501e-05
 Reference value :  1.37502e-05
 Reference value :  1.37502e-05
 Reference value :  1.37502e-05
 Reference value :  1.37502e-05
 Reference value :  1.37502e-05
 Reference value :  1.37502e-05
 Reference value :  1.37502e-05
 Reference value :  1.37502e-05
 Reference value :  1.37503e-05
 Reference value :  1.37504e-05
 Reference value :  1.37506e-05
 Reference value :  1.37509e-05
 Reference value :  1.37515e-05
 Reference value :  1.37522e-05
 Reference value :  1.37529e-05
 Reference value :  1.37538e-05
 Reference value :  1.37548e-05
 Reference value :  1.37558e-05
 Reference value :  1.37568e-05
 Reference value :  1.37579e-05
 Reference value :  1.37590e-05
 Reference value :  1.37608e-05
 Reference value :  1.37625e-05
 Reference value :  1.37653e-05
 Reference value :  1.37688e-05
 Reference value :  1.37740e-05
 Reference value :  1.37844e-05
 Reference value :  1.38028e-05
 Reference value :  1.38363e-05
 Reference value :  1.39033e-05
 Reference value :  1.40000e-05
 Reference value :  1.40000e-05
 Reference value :  1.40000e-05
 Reference value :  1.40001e-05
 Reference value :  1.40001e-05
 Reference value :  1.40001e-05
 Reference value :  1.40001e-05
 Reference value :  1.40001e-05
 Reference value :  1.40002e-05
 Reference value :  1.40002e-05
 Reference value :  1.40004e-05
 Reference value :  1.40006e-05
 Reference value :  1.40009e-05
 Reference value :  1.40016e-05
 Reference value :  1.40022e-05
 Reference value :  1.40029e-05
 Reference value :  1.40036e-05
 Reference value :  1.40043e-05
 Reference value :  1.40052e-05
 Reference value :  1.40061e-05
 Reference value :  1.40071e-05
 Reference value :  1.40085e-05
 Reference value :  1.40098e-05
 Reference value :  1.40114e-05
 Reference value :  1.40129e-05
 Reference value :  1.40145e-05
 Reference value :  1.40160e-05
 Reference value :  1.40176e-05
 Reference value :  1.40193e-05
 Reference value :  1.40212e-05
 Reference value :  1.40249e-05
 Reference value :  1.40304e-05
 Reference value :  1.40412e-05
 Reference value :  1.40629e-05
 Reference value :  1.41038e-05
 Reference value :  1.41858e-05
 Reference value :  1.42501e-05
 Reference value :  1.42501e-05
 Reference value :  1.42501e-05
 Reference value :  1.42502e-05
 Reference value :  1.42502e-05
 Reference value :  1.42502e-05
 Reference value :  1.42502e-05
 Reference value :  1.42502e-05
 Reference value :  1.42502e-05
 Reference value :  1.42502e-05
 Reference value :  1.42502e-05
 Reference value :  1.42503e-05
 Reference value :  1.42504e-05
 Reference value :  1.42506e-05
 Reference value :  1.42509e-05
 Reference value :  1.42515e-05
 Reference value :  1.42522e-05
 Reference value :  1.42529e-05
 Reference value :  1.42537e-05
 Reference value :  1.42548e-05
 Reference value :  1.42557e-05
 Reference value :  1.42568e-05
 Reference value :  1.42578e-05
 Reference value :  1.42588e-05
 Reference value :  1.42599e-05
 Reference value :  1.42612e-05
 Reference value :  1.42626e-05
 Reference value :  1.42643e-05
 Reference value :  1.42668e-05
 Reference value :  1.42695e-05
 Reference value :  1.42734e-05
 Reference value :  1.42788e-05
 Reference value :  1.42895e-05
 Reference value :  1.43109e-05
 Reference value :  1.43538e-05
 Reference value :  1.44396e-05
 Reference value :  1.45000e-05
 Reference value :  1.45000e-05
 Reference value :  1.45000e-05
 Reference value :  1.45001e-05
 Reference value :  1.45001e-05
 Reference value :  1.45001e-05
 Reference value :  1.45001e-05
 Reference value :  1.45001e-05
 Reference value :  1.45002e-05
 Reference value :  1.45002e-05
 Reference value :  1.45004e-05
 Reference value :  1.45006e-05
 Reference value :  1.45009e-05
 Reference value :  1.45016e-05
 Reference value :  1.45022e-05
 Reference value :  1.45029e-05
 Reference value :  1.45036e-05
 Reference value :  1.45044e-05
 Reference value :  1.45052e-05
 Reference value :  1.45061e-05
 Reference value :  1.45071e-05
 Reference value :  1.45079e-05
 Reference value :  1.45088e-05
 Reference value :  1.45098e-05
 Reference value :  1.45108e-05
 Reference value :  1.45121e-05
 Reference value :  1.45139e-05
 Reference value :  1.45157e-05
 Reference value :  1.45175e-05
 Reference value :  1.45195e-05
 Reference value :  1.45214e-05
 Reference value :  1.45233e-05
 Reference value :  1.45247e-05
 Reference value :  1.45260e-05
 Reference value :  1.45274e-05
 Reference value :  1.45288e-05
 Reference value :  1.45302e-05
 Reference value :  1.45318e-05
 Reference value :  1.45340e-05
 Reference value :  1.45366e-05
 Reference value :  1.45405e-05
 Reference value :  1.45476e-05
 Reference value :  1.45576e-05
 Reference value :  1.45675e-05
 Reference value :  1.45773e-05
 Reference value :  1.45906e-05
 Reference value :  1.46170e-05
 Reference value :  1.46466e-05
 Reference value :  1.46997e-05
 Reference value :  1.47501e-05
 Reference value :  1.47501e-05
 Reference value :  1.47501e-05
 Reference value :  1.47502e-05
 Reference value :  1.47502e-05
 Reference value :  1.47502e-05
 Reference value :  1.47502e-05
 Reference value :  1.47502e-05
 Reference value :  1.47502e-05
 Reference value :  1.47502e-05
 Reference value :  1.47502e-05
 Reference value :  1.47503e-05
 Reference value :  1.47504e-05
 Reference value :  1.47506e-05
 Reference value :  1.47509e-05
 Reference value :  1.47515e-05
 Reference value :  1.47522e-05
 Reference value :  1.47529e-05
 Reference value :  1.47538e-05
 Reference value :  1.47548e-05
 Reference value :  1.47558e-05
 Reference value :  1.47568e-05
 Reference value :  1.47579e-05
 Reference value :  1.47590e-05
 Reference value :  1.47608e-05
 Reference value :  1.47625e-05
 Reference value :  1.47653e-05
 Reference value :  1.47688e-05
 Reference value :  1.47740e-05
 Reference value :  1.47844e-05
 Reference value :  1.48028e-05
 Reference value :  1.48363e-05
 Reference value :  1.49033e-05
 Reference value :  1.50000e-05
 Reference value :  1.50000e-05
 Reference value :  1.50000e-05
 Reference value :  1.50001e-05
 Reference value :  1.50001e-05
 Reference value :  1.50001e-05
 Reference value :  1.50001e-05
 Reference value :  1.50001e-05
 Reference value :  1.50002e-05
 Reference value :  1.50002e-05
 Reference value :  1.50004e-05
 Reference value :  1.50006e-05
 Reference value :  1.50009e-05
 Reference value :  1.50016e-05
 Reference value :  1.50022e-05
 Reference value :  1.50029e-05
 Reference value :  1.50036e-05
 Reference value :  1.50043e-05
 Reference value :  1.50052e-05
 Reference value :  1.50061e-05
 Reference value :  1.50070e-05
 Reference value :  1.50084e-05
 Reference value :  1.50096e-05
 Reference value :  1.50112e-05
 Reference value :  1.50125e-05
 Reference value :  1.50139e-05
 Reference value :  1.50153e-05
 Reference value :  1.50169e-05
 Reference value :  1.50185e-05
 Reference value :  1.50203e-05
 Reference value :  1.50239e-05
 Reference value :  1.50311e-05
 Reference value :  1.50442e-05
 Reference value :  1.50705e-05
 Reference value :  1.51230e-05
 Reference value :  1.52281e-05
 Reference value :  1.52501e-05
 Reference value :  1.52501e-05
 Reference value :  1.52501e-05
 Reference value :  1.52502e-05
 Reference value :  1.52502e-05
 Reference value :  1.52502e-05
 Reference value :  1.52502e-05
 Reference value :  1.52502e-05
 Reference value :  1.52502e-05
 Reference value :  1.52502e-05
 Reference value :  1.52502e-05
 Reference value :  1.52503e-05
 Reference value :  1.52504e-05
 Reference value :  1.52506e-05
 Reference value :  1.52509e-05
 Reference value :  1.52515e-05
 Reference value :  1.52522e-05
 Reference value :  1.52529e-05
 Reference value :  1.52537e-05
 Reference value :  1.52548e-05
 Reference value :  1.52557e-05
 Reference value :  1.52568e-05
 Reference value :  1.52578e-05
 Reference value :  1.52588e-05
 Reference value :  1.52599e-05
 Reference value :  1.52612e-05
 Reference value :  1.52625e-05
 Reference value :  1.52643e-05
 Reference value :  1.52667e-05
 Reference value :  1.52694e-05
 Reference value :  1.52733e-05
 Reference value :  1.52786e-05
 Reference value :  1.52892e-05
 Reference value :  1.53105e-05
 Reference value :  1.53530e-05
 Reference value :  1.54380e-05
 Reference value :  1.55000e-05
 Reference value :  1.55009e-05
 Reference value :  1.55027e-05
 Reference value :  1.55036e-05
 Reference value :  1.55045e-05
 Reference value :  1.55054e-05
 Reference value :  1.55063e-05
 Reference value :  1.55072e-05
 Reference value :  1.55080e-05
 Reference value :  1.55089e-05
 Reference value :  1.55098e-05
 Reference value :  1.55108e-05
 Reference value :  1.55121e-05
 Reference value :  1.55139e-05
 Reference value :  1.55162e-05
 Reference value :  1.55178e-05
 Reference value :  1.55196e-05
 Reference value :  1.55213e-05
 Reference value :  1.55231e-05
 Reference value :  1.55245e-05
 Reference value :  1.55259e-05
 Reference value :  1.55276e-05
 Reference value :  1.55293e-05
 Reference value :  1.55308e-05
 Reference value :  1.55328e-05
 Reference value :  1.55354e-05
 Reference value :  1.55380e-05
 Reference value :  1.55428e-05
 Reference value :  1.55481e-05
 Reference value :  1.55539e-05
 Reference value :  1.55613e-05
 Reference value :  1.55751e-05
 Reference value :  1.55974e-05
 Reference value :  1.56333e-05
 Reference value :  1.56975e-05
 Reference value :  1.57501e-05
 Reference value :  1.57501e-05
 Reference value :  1.57501e-05
 Reference value :  1.57502e-05
 Reference value :  1.57502e-05
 Reference value :  1.57502e-05
 Reference value :  1.57502e-05
 Reference value :  1.57502e-05
 Reference value :  1.57502e-05
 Reference value :  1.57502e-05
 Reference value :  1.57502e-05
 Reference value :  1.57503e-05
 Reference value :  1.57504e-05
 Reference value :  1.57506e-05
 Reference value :  1.57509e-05
 Reference value :  1.57515e-05
 Reference value :  1.57522e-05
 Reference value :  1.57529e-05
 Reference value :  1.57538e-05
 Reference value :  1.57548e-05
 Reference value :  1.57557e-05
 Reference value :  1.57567e-05
 Reference value :  1.57577e-05
[...]
 Reference value :  1.74500e-04
 Reference value :  1.74500e-04
 Reference value :  1.74500e-04
 Reference value :  1.74500e-04
 Reference value :  1.74500e-04
 Reference value :  1.74500e-04
 Reference value :  1.74500e-04
 Reference value :  1.74500e-04
 Reference value :  1.74500e-04
 Reference value :  1.74500e-04
 Reference value :  1.74500e-04
 Reference value :  1.74501e-04
 Reference value :  1.74501e-04
 Reference value :  1.74502e-04
 Reference value :  1.74502e-04
 Reference value :  1.74503e-04
 Reference value :  1.74504e-04
 Reference value :  1.74504e-04
 Reference value :  1.74505e-04
 Reference value :  1.74506e-04
 Reference value :  1.74507e-04
 Reference value :  1.74508e-04
 Reference value :  1.74510e-04
 Reference value :  1.74511e-04
 Reference value :  1.74512e-04
 Reference value :  1.74514e-04
 Reference value :  1.74515e-04
 Reference value :  1.74517e-04
 Reference value :  1.74519e-04
 Reference value :  1.74521e-04
 Reference value :  1.74524e-04
 Reference value :  1.74532e-04
 Reference value :  1.74544e-04
 Reference value :  1.74569e-04
 Reference value :  1.74618e-04
 Reference value :  1.74717e-04
 Reference value :  1.74750e-04
 Reference value :  1.74750e-04
 Reference value :  1.74750e-04
 Reference value :  1.74750e-04
 Reference value :  1.74750e-04
 Reference value :  1.74750e-04
 Reference value :  1.74750e-04
 Reference value :  1.74750e-04
 Reference value :  1.74750e-04
 Reference value :  1.74750e-04
 Reference value :  1.74750e-04
 Reference value :  1.74750e-04
 Reference value :  1.74750e-04
 Reference value :  1.74751e-04
 Reference value :  1.74751e-04
 Reference value :  1.74752e-04
 Reference value :  1.74752e-04
 Reference value :  1.74753e-04
 Reference value :  1.74754e-04
 Reference value :  1.74755e-04
 Reference value :  1.74756e-04
 Reference value :  1.74757e-04
 Reference value :  1.74758e-04
 Reference value :  1.74759e-04
 Reference value :  1.74760e-04
 Reference value :  1.74761e-04
 Reference value :  1.74762e-04
 Reference value :  1.74764e-04
 Reference value :  1.74766e-04
 Reference value :  1.74769e-04
 Reference value :  1.74773e-04
 Reference value :  1.74778e-04
 Reference value :  1.74788e-04
 Reference value :  1.74804e-04
 Reference value :  1.74837e-04
 Reference value :  1.74902e-04
 Reference value :  1.75000e-04
 Reference value :  1.75000e-04
 Reference value :  1.75000e-04
 Reference value :  1.75000e-04
 Reference value :  1.75000e-04
 Reference value :  1.75000e-04
 Reference value :  1.75000e-04
 Reference value :  1.75000e-04
 Reference value :  1.75000e-04
 Reference value :  1.75000e-04
 Reference value :  1.75000e-04
 Reference value :  1.75001e-04
 Reference value :  1.75001e-04
 Reference value :  1.75002e-04
 Reference value :  1.75002e-04
 Reference value :  1.75003e-04
 Reference value :  1.75004e-04
 Reference value :  1.75004e-04
 Reference value :  1.75005e-04
 Reference value :  1.75006e-04
 Reference value :  1.75007e-04
 Reference value :  1.75008e-04
 Reference value :  1.75009e-04
 Reference value :  1.75010e-04
 Reference value :  1.75011e-04
 Reference value :  1.75012e-04
 Reference value :  1.75014e-04
 Reference value :  1.75015e-04
 Reference value :  1.75017e-04
 Reference value :  1.75019e-04
 Reference value :  1.75021e-04
 Reference value :  1.75022e-04
 Reference value :  1.75024e-04
 Reference value :  1.75025e-04
 Reference value :  1.75027e-04
 Reference value :  1.75028e-04
 Reference value :  1.75030e-04
 Reference value :  1.75032e-04
 Reference value :  1.75034e-04
 Reference value :  1.75037e-04
 Reference value :  1.75041e-04
 Reference value :  1.75045e-04
 Reference value :  1.75049e-04
 Reference value :  1.75052e-04
 Reference value :  1.75055e-04
 Reference value :  1.75058e-04
 Reference value :  1.75061e-04
 Reference value :  1.75065e-04
 Reference value :  1.75070e-04
 Reference value :  1.75077e-04
 Reference value :  1.75087e-04
 Reference value :  1.75100e-04
 Reference value :  1.75120e-04
 Reference value :  1.75149e-04
 Reference value :  1.75194e-04
 Reference value :  1.75250e-04
 Reference value :  1.75250e-04
 Reference value :  1.75250e-04
 Reference value :  1.75250e-04
 Reference value :  1.75250e-04
 Reference value :  1.75250e-04
 Reference value :  1.75250e-04
 Reference value :  1.75250e-04
 Reference value :  1.75250e-04
 Reference value :  1.75250e-04
 Reference value :  1.75250e-04
 Reference value :  1.75250e-04
 Reference value :  1.75250e-04
 Reference value :  1.75251e-04
 Reference value :  1.75251e-04
 Reference value :  1.75252e-04
 Reference value :  1.75252e-04
 Reference value :  1.75253e-04
 Reference value :  1.75254e-04
 Reference value :  1.75255e-04
 Reference value :  1.75256e-04
 Reference value :  1.75257e-04
 Reference value :  1.75258e-04
 Reference value :  1.75259e-04
 Reference value :  1.75261e-04
 Reference value :  1.75263e-04
 Reference value :  1.75265e-04
 Reference value :  1.75269e-04
 Reference value :  1.75274e-04
 Reference value :  1.75285e-04
 Reference value :  1.75303e-04
 Reference value :  1.75336e-04
 Reference value :  1.75403e-04
 Reference value :  1.75500e-04
 Reference value :  1.75500e-04
 Reference value :  1.75500e-04
 Reference value :  1.75500e-04
 Reference value :  1.75500e-04
 Reference value :  1.75500e-04
 Reference value :  1.75500e-04
 Reference value :  1.75500e-04
 Reference value :  1.75500e-04
 Reference value :  1.75500e-04
 Reference value :  1.75500e-04
 Reference value :  1.75501e-04
 Reference value :  1.75501e-04
 Reference value :  1.75502e-04
 Reference value :  1.75502e-04
 Reference value :  1.75503e-04
 Reference value :  1.75504e-04
 Reference value :  1.75504e-04
 Reference value :  1.75505e-04
 Reference value :  1.75506e-04
 Reference value :  1.75507e-04
 Reference value :  1.75509e-04
 Reference value :  1.75510e-04
 Reference value :  1.75511e-04
 Reference value :  1.75513e-04
 Reference value :  1.75515e-04
 Reference value :  1.75516e-04
 Reference value :  1.75518e-04
 Reference value :  1.75520e-04
 Reference value :  1.75522e-04
 Reference value :  1.75525e-04
 Reference value :  1.75531e-04
 Reference value :  1.75541e-04
 Reference value :  1.75560e-04
 Reference value :  1.75597e-04
 Reference value :  1.75670e-04
 Reference value :  1.75750e-04
 Reference value :  1.75750e-04
 Reference value :  1.75750e-04
 Reference value :  1.75750e-04
 Reference value :  1.75750e-04
 Reference value :  1.75750e-04
 Reference value :  1.75750e-04
 Reference value :  1.75750e-04
 Reference value :  1.75750e-04
 Reference value :  1.75750e-04
 Reference value :  1.75750e-04
 Reference value :  1.75750e-04
 Reference value :  1.75750e-04
 Reference value :  1.75751e-04
 Reference value :  1.75751e-04
 Reference value :  1.75752e-04
 Reference value :  1.75752e-04
 Reference value :  1.75753e-04
 Reference value :  1.75754e-04
 Reference value :  1.75755e-04
 Reference value :  1.75756e-04
 Reference value :  1.75757e-04
 Reference value :  1.75758e-04
 Reference value :  1.75759e-04
 Reference value :  1.75760e-04
 Reference value :  1.75761e-04
 Reference value :  1.75764e-04
 Reference value :  1.75767e-04
 Reference value :  1.75771e-04
 Reference value :  1.75777e-04
 Reference value :  1.75790e-04
 Reference value :  1.75814e-04
 Reference value :  1.75864e-04
 Reference value :  1.75963e-04
 Reference value :  1.76000e-04
 Reference value :  1.76000e-04
 Reference value :  1.76000e-04
 Reference value :  1.76000e-04
 Reference value :  1.76000e-04
 Reference value :  1.76000e-04
 Reference value :  1.76000e-04
 Reference value :  1.76000e-04
 Reference value :  1.76000e-04
 Reference value :  1.76000e-04
 Reference value :  1.76000e-04
 Reference value :  1.76001e-04
 Reference value :  1.76001e-04
 Reference value :  1.76002e-04
 Reference value :  1.76002e-04
 Reference value :  1.76003e-04
 Reference value :  1.76004e-04
 Reference value :  1.76004e-04
 Reference value :  1.76005e-04
 Reference value :  1.76006e-04
 Reference value :  1.76007e-04
 Reference value :  1.76008e-04
 Reference value :  1.76009e-04
 Reference value :  1.76010e-04
 Reference value :  1.76011e-04
 Reference value :  1.76012e-04
 Reference value :  1.76014e-04
 Reference value :  1.76017e-04
 Reference value :  1.76020e-04
 Reference value :  1.76023e-04
 Reference value :  1.76025e-04
 Reference value :  1.76027e-04
 Reference value :  1.76029e-04
 Reference value :  1.76031e-04
 Reference value :  1.76033e-04
 Reference value :  1.76035e-04
 Reference value :  1.76039e-04
 Reference value :  1.76043e-04
 Reference value :  1.76049e-04
 Reference value :  1.76056e-04
 Reference value :  1.76061e-04
 Reference value :  1.76066e-04
 Reference value :  1.76072e-04
 Reference value :  1.76078e-04
 Reference value :  1.76086e-04
 Reference value :  1.76093e-04
 Reference value :  1.76101e-04
 Reference value :  1.76112e-04
 Reference value :  1.76129e-04
 Reference value :  1.76154e-04
 Reference value :  1.76189e-04
 Reference value :  1.76239e-04
 Reference value :  1.76250e-04
 Reference value :  1.76250e-04
 Reference value :  1.76250e-04
 Reference value :  1.76250e-04
 Reference value :  1.76250e-04
 Reference value :  1.76250e-04
 Reference value :  1.76250e-04
 Reference value :  1.76250e-04
 Reference value :  1.76250e-04
 Reference value :  1.76250e-04
 Reference value :  1.76250e-04
 Reference value :  1.76250e-04
 Reference value :  1.76250e-04
 Reference value :  1.76251e-04
 Reference value :  1.76251e-04
 Reference value :  1.76252e-04
 Reference value :  1.76252e-04
 Reference value :  1.76253e-04
 Reference value :  1.76254e-04
 Reference value :  1.76255e-04
 Reference value :  1.76256e-04
 Reference value :  1.76257e-04
 Reference value :  1.76258e-04
 Reference value :  1.76259e-04
 Reference value :  1.76260e-04
 Reference value :  1.76262e-04
 Reference value :  1.76265e-04
 Reference value :  1.76268e-04
 Reference value :  1.76273e-04
 Reference value :  1.76283e-04
 Reference value :  1.76301e-04
 Reference value :  1.76339e-04
 Reference value :  1.76415e-04
 Reference value :  1.76500e-04
 Reference value :  1.76500e-04
 Reference value :  1.76500e-04
 Reference value :  1.76500e-04
 Reference value :  1.76500e-04
 Reference value :  1.76500e-04
 Reference value :  1.76500e-04
 Reference value :  1.76500e-04
 Reference value :  1.76500e-04
 Reference value :  1.76500e-04
 Reference value :  1.76500e-04
 Reference value :  1.76501e-04
 Reference value :  1.76501e-04
 Reference value :  1.76502e-04
 Reference value :  1.76502e-04
 Reference value :  1.76503e-04
 Reference value :  1.76504e-04
 Reference value :  1.76504e-04
 Reference value :  1.76505e-04
 Reference value :  1.76506e-04
 Reference value :  1.76507e-04
 Reference value :  1.76508e-04
 Reference value :  1.76510e-04
 Reference value :  1.76511e-04
 Reference value :  1.76513e-04
 Reference value :  1.76514e-04
 Reference value :  1.76515e-04
 Reference value :  1.76517e-04
 Reference value :  1.76519e-04
 Reference value :  1.76520e-04
 Reference value :  1.76524e-04
 Reference value :  1.76531e-04
 Reference value :  1.76544e-04
 Reference value :  1.76571e-04
 Reference value :  1.76623e-04
 Reference value :  1.76728e-04
 Reference value :  1.76750e-04
 Reference value :  1.76750e-04
 Reference value :  1.76750e-04
 Reference value :  1.76750e-04
 Reference value :  1.76750e-04
 Reference value :  1.76750e-04
 Reference value :  1.76750e-04
 Reference value :  1.76750e-04
 Reference value :  1.76750e-04
 Reference value :  1.76750e-04
 Reference value :  1.76750e-04
 Reference value :  1.76750e-04
 Reference value :  1.76750e-04
 Reference value :  1.76751e-04
 Reference value :  1.76751e-04
 Reference value :  1.76752e-04
 Reference value :  1.76752e-04
 Reference value :  1.76753e-04
 Reference value :  1.76754e-04
 Reference value :  1.76755e-04
 Reference value :  1.76756e-04
 Reference value :  1.76757e-04
 Reference value :  1.76758e-04
 Reference value :  1.76759e-04
 Reference value :  1.76760e-04
 Reference value :  1.76761e-04
 Reference value :  1.76762e-04
 Reference value :  1.76764e-04
 Reference value :  1.76767e-04
 Reference value :  1.76769e-04
 Reference value :  1.76773e-04
 Reference value :  1.76778e-04
 Reference value :  1.76789e-04
 Reference value :  1.76808e-04
 Reference value :  1.76847e-04
 Reference value :  1.76925e-04
 Reference value :  1.77000e-04
 Reference value :  1.77000e-04
 Reference value :  1.77000e-04
 Reference value :  1.77000e-04
 Reference value :  1.77000e-04
 Reference value :  1.77000e-04
 Reference value :  1.77000e-04
 Reference value :  1.77000e-04
 Reference value :  1.77000e-04
 Reference value :  1.77000e-04
 Reference value :  1.77000e-04
 Reference value :  1.77001e-04
 Reference value :  1.77001e-04
 Reference value :  1.77002e-04
 Reference value :  1.77002e-04
 Reference value :  1.77003e-04
 Reference value :  1.77004e-04
 Reference value :  1.77004e-04
 Reference value :  1.77005e-04
 Reference value :  1.77006e-04
 Reference value :  1.77007e-04
 Reference value :  1.77008e-04
 Reference value :  1.77009e-04
 Reference value :  1.77010e-04
 Reference value :  1.77011e-04
 Reference value :  1.77012e-04
 Reference value :  1.77014e-04
 Reference value :  1.77016e-04
 Reference value :  1.77018e-04
 Reference value :  1.77019e-04
 Reference value :  1.77021e-04
 Reference value :  1.77023e-04
 Reference value :  1.77024e-04
 Reference value :  1.77026e-04
 Reference value :  1.77028e-04
 Reference value :  1.77029e-04
 Reference value :  1.77031e-04
 Reference value :  1.77033e-04
 Reference value :  1.77035e-04
 Reference value :  1.77038e-04
 Reference value :  1.77043e-04
 Reference value :  1.77048e-04
 Reference value :  1.77054e-04
 Reference value :  1.77061e-04
 Reference value :  1.77075e-04
 Reference value :  1.77096e-04
 Reference value :  1.77136e-04
 Reference value :  1.77179e-04
 Reference value :  1.77241e-04
 Reference value :  1.77250e-04
 Reference value :  1.77250e-04
 Reference value :  1.77250e-04
 Reference value :  1.77250e-04
 Reference value :  1.77250e-04
 Reference value :  1.77250e-04
 Reference value :  1.77250e-04
 Reference value :  1.77250e-04
 Reference value :  1.77250e-04
 Reference value :  1.77250e-04
 Reference value :  1.77250e-04
 Reference value :  1.77250e-04
 Reference value :  1.77250e-04
 Reference value :  1.77251e-04
 Reference value :  1.77251e-04
 Reference value :  1.77252e-04
 Reference value :  1.77252e-04
 Reference value :  1.77253e-04
 Reference value :  1.77254e-04
 Reference value :  1.77255e-04
 Reference value :  1.77256e-04
 Reference value :  1.77257e-04
 Reference value :  1.77258e-04
 Reference value :  1.77259e-04
 Reference value :  1.77260e-04
 Reference value :  1.77262e-04
 Reference value :  1.77265e-04
 Reference value :  1.77268e-04
 Reference value :  1.77273e-04
 Reference value :  1.77283e-04
 Reference value :  1.77302e-04
 Reference value :  1.77339e-04
 Reference value :  1.77390e-04
 Reference value :  1.77476e-04
 Reference value :  1.77500e-04
 Reference value :  1.77500e-04
 Reference value :  1.77500e-04
 Reference value :  1.77500e-04
 Reference value :  1.77500e-04
 Reference value :  1.77500e-04
 Reference value :  1.77500e-04
 Reference value :  1.77500e-04
 Reference value :  1.77500e-04
 Reference value :  1.77500e-04
 Reference value :  1.77500e-04
 Reference value :  1.77501e-04
 Reference value :  1.77501e-04
 Reference value :  1.77502e-04
 Reference value :  1.77502e-04
 Reference value :  1.77503e-04
 Reference value :  1.77504e-04
 Reference value :  1.77504e-04
 Reference value :  1.77505e-04
 Reference value :  1.77506e-04
 Reference value :  1.77507e-04
 Reference value :  1.77508e-04
 Reference value :  1.77510e-04
 Reference value :  1.77511e-04
 Reference value :  1.77513e-04
 Reference value :  1.77514e-04
 Reference value :  1.77516e-04
 Reference value :  1.77517e-04
 Reference value :  1.77519e-04
 Reference value :  1.77521e-04
 Reference value :  1.77525e-04
 Reference value :  1.77532e-04
 Reference value :  1.77545e-04
 Reference value :  1.77571e-04
 Reference value :  1.77622e-04
 Reference value :  1.77726e-04
 Reference value :  1.77750e-04
 Reference value :  1.77750e-04
 Reference value :  1.77750e-04
 Reference value :  1.77750e-04
 Reference value :  1.77750e-04
 Reference value :  1.77750e-04
 Reference value :  1.77750e-04
 Reference value :  1.77750e-04
 Reference value :  1.77750e-04
 Reference value :  1.77750e-04
 Reference value :  1.77750e-04
 Reference value :  1.77750e-04
 Reference value :  1.77750e-04
 Reference value :  1.77751e-04
 Reference value :  1.77751e-04
 Reference value :  1.77752e-04
 Reference value :  1.77752e-04
 Reference value :  1.77753e-04
 Reference value :  1.77754e-04
 Reference value :  1.77755e-04
 Reference value :  1.77756e-04
 Reference value :  1.77757e-04
 Reference value :  1.77758e-04
 Reference value :  1.77759e-04
 Reference value :  1.77760e-04
 Reference value :  1.77761e-04
 Reference value :  1.77762e-04
 Reference value :  1.77764e-04
 Reference value :  1.77766e-04
 Reference value :  1.77769e-04
 Reference value :  1.77772e-04
 Reference value :  1.77777e-04
 Reference value :  1.77787e-04
 Reference value :  1.77802e-04
 Reference value :  1.77831e-04
 Reference value :  1.77890e-04
 Reference value :  1.78000e-04
 Reference value :  1.78000e-04
 Reference value :  1.78000e-04
 Reference value :  1.78000e-04
 Reference value :  1.78000e-04
 Reference value :  1.78000e-04
 Reference value :  1.78000e-04
 Reference value :  1.78000e-04
 Reference value :  1.78000e-04
 Reference value :  1.78000e-04
 Reference value :  1.78000e-04
 Reference value :  1.78001e-04
 Reference value :  1.78001e-04
 Reference value :  1.78002e-04
 Reference value :  1.78002e-04
 Reference value :  1.78003e-04
 Reference value :  1.78004e-04
 Reference value :  1.78004e-04
 Reference value :  1.78005e-04
 Reference value :  1.78006e-04
 Reference value :  1.78007e-04
 Reference value :  1.78008e-04
 Reference value :  1.78009e-04
 Reference value :  1.78010e-04
 Reference value :  1.78011e-04
 Reference value :  1.78012e-04
 Reference value :  1.78014e-04
 Reference value :  1.78016e-04
 Reference value :  1.78017e-04
 Reference value :  1.78019e-04
 Reference value :  1.78021e-04
 Reference value :  1.78023e-04
 Reference value :  1.78025e-04
 Reference value :  1.78028e-04
 Reference value :  1.78032e-04
 Reference value :  1.78035e-04
 Reference value :  1.78039e-04
 Reference value :  1.78042e-04
 Reference value :  1.78045e-04
 Reference value :  1.78049e-04
 Reference value :  1.78052e-04
 Reference value :  1.78057e-04
 Reference value :  1.78062e-04
 Reference value :  1.78073e-04
 Reference value :  1.78091e-04
 Reference value :  1.78123e-04
 Reference value :  1.78172e-04
 Reference value :  1.78231e-04
 Reference value :  1.78250e-04
 Reference value :  1.78250e-04
 Reference value :  1.78250e-04
 Reference value :  1.78250e-04
 Reference value :  1.78250e-04
 Reference value :  1.78250e-04
 Reference value :  1.78250e-04
 Reference value :  1.78250e-04
 Reference value :  1.78250e-04
 Reference value :  1.78250e-04
 Reference value :  1.78250e-04
 Reference value :  1.78250e-04
 Reference value :  1.78250e-04
 Reference value :  1.78251e-04
 Reference value :  1.78251e-04
 Reference value :  1.78252e-04
 Reference value :  1.78252e-04
 Reference value :  1.78253e-04
 Reference value :  1.78254e-04
 Reference value :  1.78255e-04
 Reference value :  1.78256e-04
 Reference value :  1.78258e-04
 Reference value :  1.78259e-04
 Reference value :  1.78261e-04
 Reference value :  1.78263e-04
 Reference value :  1.78266e-04
 Reference value :  1.78270e-04
 Reference value :  1.78276e-04
 Reference value :  1.78288e-04
 Reference value :  1.78311e-04
 Reference value :  1.78358e-04
 Reference value :  1.78450e-04
 Reference value :  1.78500e-04
No. of Data Rows : 27808
ngspice-44 done
