
Note: Compatibility modes selected: hs a


Circuit: ** sch_path: /home/ece/cace/sar-adc-using-sky130-pdk/runs/run_2025-09-13_01-17-15/parameters/dnl/run_3/sar_output_dnl.sch

option SCALE: Scale is set to 1e-06 for instance and model parameters
option SCALE: Scale is set to 1e-06 for instance and model parameters
option SCALE: Scale is set to 1e-06 for instance and model parameters
option SCALE: Scale is set to 1e-06 for instance and model parameters
Doing analysis at TEMP = 27.000000 and TNOM = 27.000000

Using KLU as Direct Linear Solver
Operating point simulation skipped by 'uic',
  now using transient initial conditions.
 Reference value :  1.00000e-12
 Reference value :  1.08400e-12
 Reference value :  1.72333e-12
 Reference value :  6.30956e-12
 Reference value :  3.50445e-11
 Reference value :  1.05723e-10
 Reference value :  2.77426e-10
 Reference value :  9.71231e-10
 Reference value :  3.21976e-09
 Reference value :  5.06406e-09
 Reference value :  6.82302e-09
 Reference value :  1.17030e-08
 Reference value :  1.34342e-08
 Reference value :  1.46536e-08
 Reference value :  1.68968e-08
 Reference value :  2.28821e-08
 Reference value :  4.60002e-08
 Reference value :  8.84321e-08
 Reference value :  1.01262e-07
 Reference value :  1.12957e-07
 Reference value :  1.36345e-07
 Reference value :  2.17097e-07
 Reference value :  2.50170e-07
 Reference value :  2.50252e-07
 Reference value :  2.50539e-07
 Reference value :  2.51466e-07
 Reference value :  2.52379e-07
 Reference value :  2.54339e-07
 Reference value :  2.56300e-07
 Reference value :  2.60463e-07
 Reference value :  2.74612e-07
 Reference value :  3.38932e-07
 Reference value :  5.00030e-07
 Reference value :  5.00108e-07
 Reference value :  5.00220e-07
 Reference value :  5.00857e-07
 Reference value :  5.01584e-07
 Reference value :  5.03007e-07
 Reference value :  5.04921e-07
 Reference value :  5.08639e-07
 Reference value :  5.09859e-07
 Reference value :  5.12586e-07
 Reference value :  5.21731e-07
 Reference value :  6.09950e-07
 Reference value :  7.50170e-07
 Reference value :  7.50256e-07
 Reference value :  7.50703e-07
 Reference value :  7.52040e-07
 Reference value :  7.53780e-07
 Reference value :  7.54923e-07
 Reference value :  7.56264e-07
 Reference value :  7.60511e-07
 Reference value :  7.74767e-07
 Reference value :  1.00000e-06
 Reference value :  1.00007e-06
 Reference value :  1.00016e-06
 Reference value :  1.00086e-06
 Reference value :  1.00163e-06
 Reference value :  1.00308e-06
 Reference value :  1.00470e-06
 Reference value :  1.00574e-06
 Reference value :  1.00807e-06
 Reference value :  1.01010e-06
 Reference value :  1.01198e-06
 Reference value :  1.01373e-06
 Reference value :  1.01530e-06
 Reference value :  1.01812e-06
 Reference value :  1.02091e-06
 Reference value :  1.03252e-06
 Reference value :  1.09475e-06
 Reference value :  1.25010e-06
 Reference value :  1.25013e-06
 Reference value :  1.25021e-06
 Reference value :  1.25032e-06
 Reference value :  1.25110e-06
 Reference value :  1.25203e-06
 Reference value :  1.25325e-06
 Reference value :  1.25377e-06
 Reference value :  1.25509e-06
 Reference value :  1.25816e-06
 Reference value :  1.26630e-06
 Reference value :  1.31537e-06
 Reference value :  1.50000e-06
 Reference value :  1.50007e-06
 Reference value :  1.50012e-06
 Reference value :  1.50035e-06
 Reference value :  1.50119e-06
 Reference value :  1.50203e-06
 Reference value :  1.50300e-06
 Reference value :  1.50488e-06
 Reference value :  1.50624e-06
 Reference value :  1.50794e-06
 Reference value :  1.51110e-06
 Reference value :  1.52625e-06
 Reference value :  1.74153e-06
 Reference value :  1.75017e-06
 Reference value :  1.75026e-06
 Reference value :  1.75070e-06
 Reference value :  1.75203e-06
 Reference value :  1.75325e-06
 Reference value :  1.75436e-06
 Reference value :  1.75550e-06
 Reference value :  1.75705e-06
 Reference value :  1.76052e-06
 Reference value :  1.77448e-06
 Reference value :  1.92381e-06
 Reference value :  2.00007e-06
 Reference value :  2.00016e-06
 Reference value :  2.00086e-06
 Reference value :  2.00163e-06
 Reference value :  2.00258e-06
 Reference value :  2.00308e-06
 Reference value :  2.00419e-06
 Reference value :  2.00519e-06
 Reference value :  2.00639e-06
 Reference value :  2.00807e-06
 Reference value :  2.01010e-06
 Reference value :  2.01197e-06
 Reference value :  2.01371e-06
 Reference value :  2.01527e-06
 Reference value :  2.01806e-06
 Reference value :  2.02599e-06
 Reference value :  2.05799e-06
 Reference value :  2.16636e-06
 Reference value :  2.22861e-06
 Reference value :  2.25011e-06
 Reference value :  2.25020e-06
 Reference value :  2.25032e-06
 Reference value :  2.25110e-06
 Reference value :  2.25203e-06
 Reference value :  2.25324e-06
 Reference value :  2.25378e-06
 Reference value :  2.25502e-06
 Reference value :  2.25803e-06
 Reference value :  2.27249e-06
 Reference value :  2.45736e-06
 Reference value :  2.50007e-06
 Reference value :  2.50016e-06
 Reference value :  2.50054e-06
 Reference value :  2.50119e-06
 Reference value :  2.50210e-06
 Reference value :  2.50307e-06
 Reference value :  2.50418e-06
 Reference value :  2.50568e-06
 Reference value :  2.50630e-06
 Reference value :  2.50793e-06
 Reference value :  2.51093e-06
 Reference value :  2.54181e-06
 Reference value :  2.75017e-06
 Reference value :  2.75026e-06
 Reference value :  2.75045e-06
 Reference value :  2.75203e-06
 Reference value :  2.75377e-06
 Reference value :  2.75491e-06
 Reference value :  2.75726e-06
 Reference value :  2.80372e-06
 Reference value :  3.00007e-06
 Reference value :  3.00016e-06
 Reference value :  3.00086e-06
 Reference value :  3.00163e-06
 Reference value :  3.00307e-06
 Reference value :  3.00473e-06
 Reference value :  3.00580e-06
 Reference value :  3.00866e-06
 Reference value :  3.01029e-06
 Reference value :  3.01341e-06
 Reference value :  3.01557e-06
 Reference value :  3.01647e-06
 Reference value :  3.01868e-06
 Reference value :  3.02189e-06
 Reference value :  3.03620e-06
 Reference value :  3.04506e-06
 Reference value :  3.05145e-06
 Reference value :  3.06234e-06
 Reference value :  3.07203e-06
 Reference value :  3.08346e-06
 Reference value :  3.12046e-06
 Reference value :  3.25010e-06
 Reference value :  3.25017e-06
 Reference value :  3.25022e-06
 Reference value :  3.25045e-06
 Reference value :  3.25157e-06
 Reference value :  3.25251e-06
 Reference value :  3.25375e-06
 Reference value :  3.25570e-06
 Reference value :  3.25965e-06
 Reference value :  3.28578e-06
 Reference value :  3.47211e-06
 Reference value :  3.50003e-06
 Reference value :  3.50011e-06
 Reference value :  3.50022e-06
 Reference value :  3.50086e-06
 Reference value :  3.50159e-06
 Reference value :  3.50251e-06
 Reference value :  3.50411e-06
 Reference value :  3.50625e-06
 Reference value :  3.50887e-06
 Reference value :  3.51099e-06
 Reference value :  3.51901e-06
 Reference value :  3.63165e-06
 Reference value :  3.75013e-06
 Reference value :  3.75021e-06
 Reference value :  3.75032e-06
 Reference value :  3.75109e-06
 Reference value :  3.75203e-06
 Reference value :  3.75377e-06
 Reference value :  3.75490e-06
 Reference value :  3.75623e-06
 Reference value :  3.75889e-06
 Reference value :  3.76796e-06
 Reference value :  3.83800e-06
 Reference value :  4.00001e-06
 Reference value :  4.00010e-06
 Reference value :  4.00022e-06
 Reference value :  4.00086e-06
 Reference value :  4.00163e-06
 Reference value :  4.00308e-06
 Reference value :  4.00471e-06
 Reference value :  4.00640e-06
 Reference value :  4.00807e-06
 Reference value :  4.01010e-06
 Reference value :  4.01197e-06
 Reference value :  4.01370e-06
 Reference value :  4.01525e-06
 Reference value :  4.01802e-06
 Reference value :  4.02568e-06
 Reference value :  4.06582e-06
 Reference value :  4.07495e-06
 Reference value :  4.08785e-06
 Reference value :  4.11196e-06
 Reference value :  4.20823e-06
 Reference value :  4.25017e-06
 Reference value :  4.25032e-06
 Reference value :  4.25156e-06
 Reference value :  4.25324e-06
 Reference value :  4.25501e-06
 Reference value :  4.26582e-06
 Reference value :  4.47028e-06
 Reference value :  4.50010e-06
 Reference value :  4.50022e-06
 Reference value :  4.50086e-06
 Reference value :  4.50163e-06
 Reference value :  4.50258e-06
 Reference value :  4.50363e-06
 Reference value :  4.50568e-06
 Reference value :  4.50702e-06
 Reference value :  4.50889e-06
 Reference value :  4.51093e-06
 Reference value :  4.52654e-06
 Reference value :  4.75010e-06
 Reference value :  4.75011e-06
 Reference value :  4.75020e-06
 Reference value :  4.75045e-06
 Reference value :  4.75203e-06
 Reference value :  4.75377e-06
 Reference value :  4.75548e-06
 Reference value :  4.75724e-06
 Reference value :  4.76448e-06
 Reference value :  4.84744e-06
 Reference value :  5.00003e-06
 Reference value :  5.00012e-06
 Reference value :  5.00035e-06
 Reference value :  5.00119e-06
 Reference value :  5.00210e-06
 Reference value :  5.00307e-06
 Reference value :  5.00418e-06
 Reference value :  5.00524e-06
 Reference value :  5.00732e-06
 Reference value :  5.01029e-06
 Reference value :  5.01341e-06
 Reference value :  5.01558e-06
 Reference value :  5.01757e-06
 Reference value :  5.01992e-06
 Reference value :  5.02884e-06
 Reference value :  5.04650e-06
 Reference value :  5.06330e-06
 Reference value :  5.11110e-06
 Reference value :  5.25013e-06
 Reference value :  5.25026e-06
 Reference value :  5.25109e-06
 Reference value :  5.25202e-06
 Reference value :  5.25375e-06
 Reference value :  5.25569e-06
 Reference value :  5.25967e-06
 Reference value :  5.28586e-06
 Reference value :  5.47244e-06
 Reference value :  5.50003e-06
 Reference value :  5.50011e-06
 Reference value :  5.50022e-06
 Reference value :  5.50086e-06
 Reference value :  5.50159e-06
 Reference value :  5.50300e-06
 Reference value :  5.50490e-06
 Reference value :  5.50625e-06
 Reference value :  5.50887e-06
 Reference value :  5.51225e-06
 Reference value :  5.54037e-06
 Reference value :  5.73945e-06
 Reference value :  5.75013e-06
 Reference value :  5.75021e-06
 Reference value :  5.75045e-06
 Reference value :  5.75156e-06
 Reference value :  5.75251e-06
 Reference value :  5.75377e-06
 Reference value :  5.75548e-06
 Reference value :  5.75785e-06
 Reference value :  5.76475e-06
 Reference value :  5.80187e-06
 Reference value :  6.00003e-06
 Reference value :  6.00011e-06
 Reference value :  6.00022e-06
 Reference value :  6.00086e-06
 Reference value :  6.00209e-06
 Reference value :  6.00364e-06
 Reference value :  6.00471e-06
 Reference value :  6.00574e-06
 Reference value :  6.00711e-06
 Reference value :  6.00921e-06
 Reference value :  6.01010e-06
 Reference value :  6.01196e-06
 Reference value :  6.01369e-06
 Reference value :  6.01623e-06
 Reference value :  6.01821e-06
 Reference value :  6.02668e-06
 Reference value :  6.05455e-06
 Reference value :  6.23131e-06
 Reference value :  6.25017e-06
 Reference value :  6.25032e-06
 Reference value :  6.25156e-06
 Reference value :  6.25323e-06
 Reference value :  6.25435e-06
 Reference value :  6.25641e-06
 Reference value :  6.26561e-06
 Reference value :  6.36215e-06
 Reference value :  6.50003e-06
 Reference value :  6.50012e-06
 Reference value :  6.50054e-06
 Reference value :  6.50119e-06
 Reference value :  6.50204e-06
 Reference value :  6.50300e-06
 Reference value :  6.50411e-06
 Reference value :  6.50561e-06
 Reference value :  6.50625e-06
 Reference value :  6.50795e-06
 Reference value :  6.50986e-06
 Reference value :  6.51452e-06
 Reference value :  6.54051e-06
 Reference value :  6.74051e-06
 Reference value :  6.75013e-06
 Reference value :  6.75021e-06
 Reference value :  6.75045e-06
 Reference value :  6.75156e-06
 Reference value :  6.75251e-06
 Reference value :  6.75376e-06
 Reference value :  6.75548e-06
 Reference value :  6.75704e-06
 Reference value :  6.76040e-06
 Reference value :  6.77425e-06
 Reference value :  6.90507e-06
 Reference value :  7.00007e-06
 Reference value :  7.00016e-06
 Reference value :  7.00086e-06
 Reference value :  7.00209e-06
 Reference value :  7.00308e-06
 Reference value :  7.00419e-06
 Reference value :  7.00519e-06
 Reference value :  7.00640e-06
 Reference value :  7.00807e-06
 Reference value :  7.01010e-06
 Reference value :  7.01197e-06
 Reference value :  7.01368e-06
 Reference value :  7.01528e-06
 Reference value :  7.01809e-06
 Reference value :  7.02612e-06
 Reference value :  7.14850e-06
 Reference value :  7.25013e-06
 Reference value :  7.25026e-06
 Reference value :  7.25109e-06
 Reference value :  7.25251e-06
 Reference value :  7.25376e-06
 Reference value :  7.25564e-06
 Reference value :  7.26239e-06
 Reference value :  7.36201e-06
 Reference value :  7.50007e-06
 Reference value :  7.50016e-06
 Reference value :  7.50086e-06
 Reference value :  7.50204e-06
 Reference value :  7.50356e-06
 Reference value :  7.50625e-06
 Reference value :  7.50886e-06
 Reference value :  7.51452e-06
 Reference value :  7.62621e-06
 Reference value :  7.75013e-06
 Reference value :  7.75026e-06
 Reference value :  7.75109e-06
 Reference value :  7.75251e-06
 Reference value :  7.75376e-06
 Reference value :  7.75490e-06
 Reference value :  7.75622e-06
 Reference value :  7.75785e-06
 Reference value :  7.76204e-06
 Reference value :  7.80109e-06
 Reference value :  8.00003e-06
 Reference value :  8.00016e-06
 Reference value :  8.00086e-06
 Reference value :  8.00258e-06
 Reference value :  8.00415e-06
 Reference value :  8.00569e-06
 Reference value :  8.00773e-06
 Reference value :  8.01008e-06
 Reference value :  8.01547e-06
 Reference value :  8.02487e-06
 Reference value :  8.12576e-06
 Reference value :  8.25010e-06
 Reference value :  8.25017e-06
 Reference value :  8.25022e-06
 Reference value :  8.25045e-06
 Reference value :  8.25109e-06
 Reference value :  8.25202e-06
 Reference value :  8.25323e-06
 Reference value :  8.25483e-06
 Reference value :  8.25837e-06
 Reference value :  8.27428e-06
 Reference value :  8.29137e-06
 Reference value :  8.39250e-06
 Reference value :  8.50000e-06
 Reference value :  8.50000e-06
 Reference value :  8.50000e-06
 Reference value :  8.50008e-06
 Reference value :  8.50012e-06
 Reference value :  8.50027e-06
 Reference value :  8.50118e-06
 Reference value :  8.50204e-06
 Reference value :  8.50306e-06
 Reference value :  8.50415e-06
 Reference value :  8.50582e-06
 Reference value :  8.51686e-06
 Reference value :  8.52888e-06
 Reference value :  8.53636e-06
 Reference value :  8.54181e-06
 Reference value :  8.54850e-06
 Reference value :  8.56663e-06
 Reference value :  8.61319e-06
 Reference value :  8.66440e-06
 Reference value :  8.67990e-06
 Reference value :  8.70471e-06
 Reference value :  8.74037e-06
 Reference value :  8.75013e-06
 Reference value :  8.75021e-06
 Reference value :  8.75032e-06
 Reference value :  8.75109e-06
 Reference value :  8.75202e-06
 Reference value :  8.75373e-06
 Reference value :  8.75501e-06
 Reference value :  8.75648e-06
 Reference value :  8.76253e-06
 Reference value :  8.77258e-06
 Reference value :  8.97353e-06
 Reference value :  9.00007e-06
 Reference value :  9.00012e-06
 Reference value :  9.00035e-06
 Reference value :  9.00086e-06
 Reference value :  9.00204e-06
 Reference value :  9.00355e-06
 Reference value :  9.00561e-06
 Reference value :  9.00988e-06
 Reference value :  9.01259e-06
 Reference value :  9.01781e-06
 Reference value :  9.07243e-06
 Reference value :  9.25013e-06
 Reference value :  9.25022e-06
 Reference value :  9.25070e-06
 Reference value :  9.25203e-06
 Reference value :  9.25375e-06
 Reference value :  9.25546e-06
 Reference value :  9.25686e-06
 Reference value :  9.25939e-06
 Reference value :  9.26936e-06
 Reference value :  9.31413e-06
 Reference value :  9.50001e-06
 Reference value :  9.50010e-06
 Reference value :  9.50022e-06
 Reference value :  9.50086e-06
 Reference value :  9.50163e-06
 Reference value :  9.50308e-06
 Reference value :  9.50471e-06
 Reference value :  9.50574e-06
 Reference value :  9.50808e-06
 Reference value :  9.51011e-06
 Reference value :  9.51199e-06
 Reference value :  9.51372e-06
 Reference value :  9.51528e-06
 Reference value :  9.51809e-06
 Reference value :  9.53212e-06
 Reference value :  9.75011e-06
 Reference value :  9.75022e-06
 Reference value :  9.75109e-06
 Reference value :  9.75323e-06
 Reference value :  9.75498e-06
 Reference value :  9.76558e-06
 Reference value :  1.00000e-05
 Reference value :  1.00002e-05
 Reference value :  1.00009e-05
 Reference value :  1.00020e-05
 Reference value :  1.00030e-05
 Reference value :  1.00041e-05
 Reference value :  1.00062e-05
 Reference value :  1.00079e-05
 Reference value :  1.00099e-05
 Reference value :  1.00145e-05
 Reference value :  1.00405e-05
 Reference value :  1.02406e-05
 Reference value :  1.02502e-05
 Reference value :  1.02503e-05
 Reference value :  1.02511e-05
 Reference value :  1.02520e-05
 Reference value :  1.02532e-05
 Reference value :  1.02544e-05
 Reference value :  1.02555e-05
 Reference value :  1.02562e-05
 Reference value :  1.02579e-05
 Reference value :  1.02621e-05
 Reference value :  1.02844e-05
 Reference value :  1.04044e-05
 Reference value :  1.05000e-05
 Reference value :  1.05001e-05
 Reference value :  1.05002e-05
 Reference value :  1.05005e-05
 Reference value :  1.05012e-05
 Reference value :  1.05026e-05
 Reference value :  1.05042e-05
 Reference value :  1.05057e-05
 Reference value :  1.05081e-05
 Reference value :  1.05110e-05
 Reference value :  1.05120e-05
 Reference value :  1.05137e-05
 Reference value :  1.05153e-05
 Reference value :  1.05181e-05
 Reference value :  1.05226e-05
 Reference value :  1.05390e-05
 Reference value :  1.06163e-05
 Reference value :  1.06927e-05
 Reference value :  1.07435e-05
 Reference value :  1.07501e-05
 Reference value :  1.07502e-05
 Reference value :  1.07503e-05
 Reference value :  1.07516e-05
 Reference value :  1.07525e-05
 Reference value :  1.07538e-05
 Reference value :  1.07557e-05
 Reference value :  1.07658e-05
 Reference value :  1.10000e-05
 Reference value :  1.10001e-05
 Reference value :  1.10003e-05
 Reference value :  1.10012e-05
 Reference value :  1.10021e-05
 Reference value :  1.10031e-05
 Reference value :  1.10049e-05
 Reference value :  1.10063e-05
 Reference value :  1.10089e-05
 Reference value :  1.10121e-05
 Reference value :  1.10717e-05
 Reference value :  1.12501e-05
 Reference value :  1.12502e-05
 Reference value :  1.12504e-05
 Reference value :  1.12516e-05
 Reference value :  1.12525e-05
 Reference value :  1.12538e-05
 Reference value :  1.12549e-05
 Reference value :  1.12563e-05
 Reference value :  1.12612e-05
 Reference value :  1.13030e-05
 Reference value :  1.15000e-05
 Reference value :  1.15001e-05
 Reference value :  1.15005e-05
 Reference value :  1.15016e-05
 Reference value :  1.15026e-05
 Reference value :  1.15031e-05
 Reference value :  1.15042e-05
 Reference value :  1.15052e-05
 Reference value :  1.15065e-05
 Reference value :  1.15087e-05
 Reference value :  1.15103e-05
 Reference value :  1.15119e-05
 Reference value :  1.15134e-05
 Reference value :  1.15145e-05
 Reference value :  1.15165e-05
 Reference value :  1.15187e-05
 Reference value :  1.15293e-05
 Reference value :  1.15360e-05
 Reference value :  1.15445e-05
 Reference value :  1.15511e-05
 Reference value :  1.15626e-05
 Reference value :  1.15728e-05
 Reference value :  1.15911e-05
 Reference value :  1.16231e-05
 Reference value :  1.17339e-05
 Reference value :  1.17501e-05
 Reference value :  1.17502e-05
 Reference value :  1.17503e-05
 Reference value :  1.17511e-05
 Reference value :  1.17520e-05
 Reference value :  1.17532e-05
 Reference value :  1.17543e-05
 Reference value :  1.17565e-05
 Reference value :  1.17725e-05
 Reference value :  1.19725e-05
 Reference value :  1.20000e-05
 Reference value :  1.20001e-05
 Reference value :  1.20002e-05
 Reference value :  1.20009e-05
 Reference value :  1.20016e-05
 Reference value :  1.20025e-05
 Reference value :  1.20030e-05
 Reference value :  1.20041e-05
 Reference value :  1.20056e-05
 Reference value :  1.20062e-05
 Reference value :  1.20080e-05
 Reference value :  1.20099e-05
 Reference value :  1.20145e-05
 Reference value :  1.20688e-05
 Reference value :  1.22393e-05
 Reference value :  1.22501e-05
 Reference value :  1.22502e-05
 Reference value :  1.22504e-05
 Reference value :  1.22516e-05
 Reference value :  1.22532e-05
 Reference value :  1.22544e-05
 Reference value :  1.22555e-05
 Reference value :  1.22562e-05
 Reference value :  1.22579e-05
 Reference value :  1.22604e-05
 Reference value :  1.22679e-05
 Reference value :  1.23016e-05
 Reference value :  1.25000e-05
 Reference value :  1.25000e-05
 Reference value :  1.25001e-05
 Reference value :  1.25001e-05
 Reference value :  1.25002e-05
 Reference value :  1.25009e-05
 Reference value :  1.25016e-05
 Reference value :  1.25031e-05
 Reference value :  1.25042e-05
 Reference value :  1.25052e-05
 Reference value :  1.25071e-05
 Reference value :  1.25092e-05
 Reference value :  1.25101e-05
 Reference value :  1.25120e-05
 Reference value :  1.25137e-05
 Reference value :  1.25153e-05
 Reference value :  1.25171e-05
 Reference value :  1.25191e-05
 Reference value :  1.25226e-05
 Reference value :  1.25389e-05
 Reference value :  1.25627e-05
 Reference value :  1.25723e-05
 Reference value :  1.25821e-05
 Reference value :  1.25865e-05
 Reference value :  1.25959e-05
 Reference value :  1.26241e-05
 Reference value :  1.27181e-05
 Reference value :  1.27501e-05
 Reference value :  1.27502e-05
 Reference value :  1.27503e-05
 Reference value :  1.27507e-05
 Reference value :  1.27516e-05
 Reference value :  1.27520e-05
 Reference value :  1.27532e-05
 Reference value :  1.27538e-05
 Reference value :  1.27550e-05
 Reference value :  1.27564e-05
 Reference value :  1.27596e-05
 Reference value :  1.27724e-05
 Reference value :  1.28117e-05
 Reference value :  1.30000e-05
 Reference value :  1.30001e-05
 Reference value :  1.30001e-05
 Reference value :  1.30003e-05
 Reference value :  1.30012e-05
 Reference value :  1.30031e-05
 Reference value :  1.30049e-05
 Reference value :  1.30063e-05
 Reference value :  1.30079e-05
 Reference value :  1.30098e-05
 Reference value :  1.30121e-05
 Reference value :  1.30265e-05
 Reference value :  1.31319e-05
 Reference value :  1.32501e-05
 Reference value :  1.32502e-05
 Reference value :  1.32504e-05
 Reference value :  1.32516e-05
 Reference value :  1.32525e-05
 Reference value :  1.32538e-05
 Reference value :  1.32549e-05
 Reference value :  1.32563e-05
 Reference value :  1.32612e-05
 Reference value :  1.33031e-05
 Reference value :  1.35000e-05
 Reference value :  1.35001e-05
 Reference value :  1.35002e-05
 Reference value :  1.35005e-05
 Reference value :  1.35012e-05
 Reference value :  1.35021e-05
 Reference value :  1.35031e-05
 Reference value :  1.35042e-05
 Reference value :  1.35052e-05
 Reference value :  1.35065e-05
 Reference value :  1.35087e-05
 Reference value :  1.35103e-05
 Reference value :  1.35134e-05
 Reference value :  1.35145e-05
 Reference value :  1.35165e-05
 Reference value :  1.35187e-05
 Reference value :  1.35219e-05
 Reference value :  1.35281e-05
 Reference value :  1.35331e-05
 Reference value :  1.35421e-05
 Reference value :  1.35501e-05
 Reference value :  1.35604e-05
 Reference value :  1.35726e-05
 Reference value :  1.36080e-05
 Reference value :  1.36818e-05
 Reference value :  1.37501e-05
 Reference value :  1.37502e-05
 Reference value :  1.37503e-05
 Reference value :  1.37504e-05
 Reference value :  1.37511e-05
 Reference value :  1.37520e-05
 Reference value :  1.37532e-05
 Reference value :  1.37537e-05
 Reference value :  1.37550e-05
 Reference value :  1.37565e-05
 Reference value :  1.37597e-05
 Reference value :  1.37726e-05
 Reference value :  1.40000e-05
 Reference value :  1.40001e-05
 Reference value :  1.40003e-05
 Reference value :  1.40012e-05
 Reference value :  1.40025e-05
 Reference value :  1.40041e-05
 Reference value :  1.40062e-05
 Reference value :  1.40089e-05
 Reference value :  1.40145e-05
 Reference value :  1.41256e-05
 Reference value :  1.42502e-05
 Reference value :  1.42503e-05
 Reference value :  1.42516e-05
 Reference value :  1.42532e-05
 Reference value :  1.42549e-05
 Reference value :  1.42562e-05
 Reference value :  1.42604e-05
 Reference value :  1.43017e-05
 Reference value :  1.45001e-05
 Reference value :  1.45002e-05
 Reference value :  1.45009e-05
 Reference value :  1.45021e-05
 Reference value :  1.45031e-05
 Reference value :  1.45047e-05
 Reference value :  1.45057e-05
 Reference value :  1.45081e-05
 Reference value :  1.45110e-05
 Reference value :  1.45130e-05
 Reference value :  1.45153e-05
 Reference value :  1.45182e-05
 Reference value :  1.45211e-05
 Reference value :  1.45264e-05
 Reference value :  1.45391e-05
 Reference value :  1.45687e-05
 Reference value :  1.46261e-05
 Reference value :  1.47379e-05
 Reference value :  1.47501e-05
 Reference value :  1.47502e-05
 Reference value :  1.47503e-05
 Reference value :  1.47504e-05
 Reference value :  1.47511e-05
 Reference value :  1.47525e-05
 Reference value :  1.47538e-05
 Reference value :  1.47564e-05
 Reference value :  1.48106e-05
 Reference value :  1.50000e-05
 Reference value :  1.50001e-05
 Reference value :  1.50003e-05
 Reference value :  1.50009e-05
 Reference value :  1.50016e-05
 Reference value :  1.50030e-05
 Reference value :  1.50056e-05
 Reference value :  1.50069e-05
 Reference value :  1.50089e-05
 Reference value :  1.50111e-05
 Reference value :  1.50262e-05
 Reference value :  1.51262e-05
 Reference value :  1.52501e-05
 Reference value :  1.52503e-05
 Reference value :  1.52511e-05
 Reference value :  1.52525e-05
 Reference value :  1.52538e-05
 Reference value :  1.52549e-05
 Reference value :  1.52562e-05
 Reference value :  1.52579e-05
 Reference value :  1.52621e-05
 Reference value :  1.52845e-05
 Reference value :  1.55000e-05
 Reference value :  1.55015e-05
 Reference value :  1.55046e-05
 Reference value :  1.55061e-05
 Reference value :  1.55090e-05
 Reference value :  1.55113e-05
 Reference value :  1.55123e-05
 Reference value :  1.55143e-05
 Reference value :  1.55161e-05
 Reference value :  1.55180e-05
 Reference value :  1.55220e-05
 Reference value :  1.55322e-05
 Reference value :  1.56177e-05
 Reference value :  1.57501e-05
 Reference value :  1.57502e-05
 Reference value :  1.57503e-05
 Reference value :  1.57507e-05
 Reference value :  1.57520e-05
 Reference value :  1.57537e-05
 Reference value :  1.57549e-05
 Reference value :  1.57563e-05
 Reference value :  1.57617e-05
 Reference value :  1.58073e-05
 Reference value :  1.60000e-05
 Reference value :  1.60001e-05
 Reference value :  1.60002e-05
 Reference value :  1.60003e-05
 Reference value :  1.60009e-05
 Reference value :  1.60016e-05
 Reference value :  1.60025e-05
 Reference value :  1.60036e-05
 Reference value :  1.60062e-05
 Reference value :  1.60089e-05
 Reference value :  1.60191e-05
 Reference value :  1.62404e-05
 Reference value :  1.62502e-05
 Reference value :  1.62503e-05
 Reference value :  1.62507e-05
 Reference value :  1.62520e-05
 Reference value :  1.62532e-05
 Reference value :  1.62544e-05
 Reference value :  1.62562e-05
 Reference value :  1.62589e-05
 Reference value :  1.62679e-05
 Reference value :  1.63351e-05
 Reference value :  1.65000e-05
 Reference value :  1.65001e-05
 Reference value :  1.65002e-05
 Reference value :  1.65009e-05
 Reference value :  1.65016e-05
 Reference value :  1.65036e-05
 Reference value :  1.65052e-05
 Reference value :  1.65070e-05
 Reference value :  1.65086e-05
 Reference value :  1.65109e-05
 Reference value :  1.65168e-05
 Reference value :  1.65420e-05
 Reference value :  1.66032e-05
 Reference value :  1.66369e-05
 Reference value :  1.67501e-05
 Reference value :  1.67502e-05
 Reference value :  1.67503e-05
 Reference value :  1.67511e-05
 Reference value :  1.67520e-05
 Reference value :  1.67532e-05
 Reference value :  1.67558e-05
 Reference value :  1.67601e-05
 Reference value :  1.68191e-05
 Reference value :  1.70000e-05
 Reference value :  1.70000e-05
 Reference value :  1.70000e-05
 Reference value :  1.70000e-05
 Reference value :  1.70001e-05
 Reference value :  1.70001e-05
 Reference value :  1.70001e-05
 Reference value :  1.70003e-05
 Reference value :  1.70007e-05
 Reference value :  1.70016e-05
 Reference value :  1.70020e-05
 Reference value :  1.70031e-05
 Reference value :  1.70036e-05
 Reference value :  1.70046e-05
 Reference value :  1.70058e-05
 Reference value :  1.70095e-05
 Reference value :  1.70229e-05
 Reference value :  1.70289e-05
 Reference value :  1.70332e-05
 Reference value :  1.70382e-05
 Reference value :  1.70447e-05
 Reference value :  1.70725e-05
 Reference value :  1.71155e-05
 Reference value :  1.71652e-05
 Reference value :  1.72006e-05
 Reference value :  1.72219e-05
 Reference value :  1.72501e-05
 Reference value :  1.72502e-05
 Reference value :  1.72503e-05
 Reference value :  1.72507e-05
 Reference value :  1.72516e-05
 Reference value :  1.72520e-05
 Reference value :  1.72532e-05
 Reference value :  1.72537e-05
 Reference value :  1.72557e-05
 Reference value :  1.72597e-05
 Reference value :  1.73129e-05
 Reference value :  1.75000e-05
 Reference value :  1.75001e-05
 Reference value :  1.75002e-05
 Reference value :  1.75005e-05
 Reference value :  1.75009e-05
 Reference value :  1.75016e-05
 Reference value :  1.75025e-05
 Reference value :  1.75036e-05
 Reference value :  1.75070e-05
 Reference value :  1.75113e-05
 Reference value :  1.75126e-05
 Reference value :  1.75161e-05
 Reference value :  1.75214e-05
 Reference value :  1.75706e-05
 Reference value :  1.77501e-05
 Reference value :  1.77502e-05
 Reference value :  1.77503e-05
 Reference value :  1.77507e-05
 Reference value :  1.77520e-05
 Reference value :  1.77538e-05
 Reference value :  1.77549e-05
 Reference value :  1.77562e-05
 Reference value :  1.77576e-05
 Reference value :  1.77594e-05
 Reference value :  1.77655e-05
 Reference value :  1.77957e-05
 Reference value :  1.79445e-05
 Reference value :  1.80009e-05
 Reference value :  1.80037e-05
 Reference value :  1.80056e-05
 Reference value :  1.80064e-05
 Reference value :  1.80082e-05
 Reference value :  1.80103e-05
 Reference value :  1.80121e-05
 Reference value :  1.80138e-05
 Reference value :  1.80155e-05
 Reference value :  1.80173e-05
 Reference value :  1.80193e-05
 Reference value :  1.80227e-05
 Reference value :  1.80307e-05
 Reference value :  1.80736e-05
 Reference value :  1.82501e-05
 Reference value :  1.82502e-05
 Reference value :  1.82502e-05
 Reference value :  1.82504e-05
 Reference value :  1.82516e-05
 Reference value :  1.82525e-05
 Reference value :  1.82537e-05
 Reference value :  1.82548e-05
 Reference value :  1.82574e-05
 Reference value :  1.82706e-05
 Reference value :  1.84398e-05
 Reference value :  1.85000e-05
 Reference value :  1.85001e-05
 Reference value :  1.85005e-05
 Reference value :  1.85016e-05
 Reference value :  1.85030e-05
 Reference value :  1.85049e-05
 Reference value :  1.85062e-05
 Reference value :  1.85089e-05
 Reference value :  1.85145e-05
 Reference value :  1.87403e-05
 Reference value :  1.87502e-05
 Reference value :  1.87503e-05
 Reference value :  1.87516e-05
 Reference value :  1.87532e-05
 Reference value :  1.87549e-05
 Reference value :  1.87570e-05
 Reference value :  1.87620e-05
 Reference value :  1.88016e-05
 Reference value :  1.90000e-05
 Reference value :  1.90001e-05
 Reference value :  1.90005e-05
 Reference value :  1.90012e-05
 Reference value :  1.90021e-05
 Reference value :  1.90031e-05
 Reference value :  1.90047e-05
 Reference value :  1.90057e-05
 Reference value :  1.90081e-05
 Reference value :  1.90101e-05
 Reference value :  1.90120e-05
 Reference value :  1.90137e-05
 Reference value :  1.90153e-05
 Reference value :  1.90181e-05
 Reference value :  1.90256e-05
 Reference value :  1.91189e-05
 Reference value :  1.92265e-05
 Reference value :  1.92501e-05
 Reference value :  1.92502e-05
 Reference value :  1.92502e-05
 Reference value :  1.92504e-05
 Reference value :  1.92511e-05
 Reference value :  1.92520e-05
 Reference value :  1.92532e-05
 Reference value :  1.92544e-05
 Reference value :  1.92557e-05
 Reference value :  1.92596e-05
 Reference value :  1.92855e-05
 Reference value :  1.95000e-05
 Reference value :  1.95007e-05
 Reference value :  1.95030e-05
 Reference value :  1.95044e-05
 Reference value :  1.95060e-05
 Reference value :  1.95067e-05
 Reference value :  1.95083e-05
 Reference value :  1.95092e-05
 Reference value :  1.95111e-05
 Reference value :  1.95190e-05
 Reference value :  1.95740e-05
 Reference value :  1.97501e-05
 Reference value :  1.97502e-05
 Reference value :  1.97503e-05
 Reference value :  1.97507e-05
 Reference value :  1.97516e-05
 Reference value :  1.97520e-05
 Reference value :  1.97537e-05
 Reference value :  1.97548e-05
 Reference value :  1.97562e-05
 Reference value :  1.97640e-05
 Reference value :  1.99158e-05
 Reference value :  2.00001e-05
 Reference value :  2.00001e-05
 Reference value :  2.00003e-05
 Reference value :  2.00012e-05
 Reference value :  2.00021e-05
 Reference value :  2.00036e-05
 Reference value :  2.00058e-05
 Reference value :  2.00103e-05
 Reference value :  2.00145e-05
 Reference value :  2.00165e-05
 Reference value :  2.00198e-05
 Reference value :  2.00361e-05
 Reference value :  2.00636e-05
 Reference value :  2.00957e-05
 Reference value :  2.02501e-05
 Reference value :  2.02504e-05
 Reference value :  2.02520e-05
 Reference value :  2.02537e-05
 Reference value :  2.02565e-05
 Reference value :  2.02859e-05
 Reference value :  2.05000e-05
 Reference value :  2.05005e-05
 Reference value :  2.05019e-05
 Reference value :  2.05042e-05
 Reference value :  2.05063e-05
 Reference value :  2.05080e-05
 Reference value :  2.05110e-05
 Reference value :  2.05425e-05
 Reference value :  2.07501e-05
 Reference value :  2.07502e-05
 Reference value :  2.07502e-05
 Reference value :  2.07503e-05
 Reference value :  2.07511e-05
 Reference value :  2.07520e-05
 Reference value :  2.07532e-05
 Reference value :  2.07538e-05
 Reference value :  2.07549e-05
 Reference value :  2.07562e-05
 Reference value :  2.07589e-05
 Reference value :  2.07648e-05
 Reference value :  2.08025e-05
 Reference value :  2.10000e-05
 Reference value :  2.10001e-05
 Reference value :  2.10002e-05
 Reference value :  2.10005e-05
 Reference value :  2.10016e-05
 Reference value :  2.10031e-05
 Reference value :  2.10052e-05
 Reference value :  2.10081e-05
 Reference value :  2.10110e-05
 Reference value :  2.10130e-05
 Reference value :  2.10153e-05
 Reference value :  2.10181e-05
 Reference value :  2.10226e-05
 Reference value :  2.10392e-05
 Reference value :  2.10655e-05
 Reference value :  2.10776e-05
 Reference value :  2.10850e-05
 Reference value :  2.11015e-05
 Reference value :  2.11408e-05
 Reference value :  2.12501e-05
 Reference value :  2.12502e-05
 Reference value :  2.12502e-05
 Reference value :  2.12507e-05
 Reference value :  2.12520e-05
 Reference value :  2.12532e-05
 Reference value :  2.12544e-05
 Reference value :  2.12557e-05
 Reference value :  2.12596e-05
 Reference value :  2.12724e-05
 Reference value :  2.14692e-05
 Reference value :  2.15001e-05
 Reference value :  2.15002e-05
 Reference value :  2.15009e-05
 Reference value :  2.15016e-05
 Reference value :  2.15031e-05
 Reference value :  2.15042e-05
 Reference value :  2.15057e-05
 Reference value :  2.15063e-05
 Reference value :  2.15079e-05
 Reference value :  2.15109e-05
 Reference value :  2.15190e-05
 Reference value :  2.15717e-05
 Reference value :  2.17501e-05
 Reference value :  2.17502e-05
 Reference value :  2.17502e-05
 Reference value :  2.17503e-05
 Reference value :  2.17511e-05
 Reference value :  2.17520e-05
 Reference value :  2.17532e-05
 Reference value :  2.17538e-05
 Reference value :  2.17549e-05
 Reference value :  2.17563e-05
 Reference value :  2.17612e-05
 Reference value :  2.17810e-05
 Reference value :  2.20000e-05
 Reference value :  2.20012e-05
 Reference value :  2.20046e-05
 Reference value :  2.20067e-05
 Reference value :  2.20103e-05
 Reference value :  2.20130e-05
 Reference value :  2.20164e-05
 Reference value :  2.20214e-05
 Reference value :  2.20334e-05
 Reference value :  2.20442e-05
 Reference value :  2.20591e-05
 Reference value :  2.20794e-05
 Reference value :  2.21445e-05
 Reference value :  2.22501e-05
 Reference value :  2.22502e-05
 Reference value :  2.22503e-05
 Reference value :  2.22507e-05
 Reference value :  2.22520e-05
 Reference value :  2.22531e-05
 Reference value :  2.22542e-05
 Reference value :  2.22554e-05
 Reference value :  2.22589e-05
 Reference value :  2.22820e-05
 Reference value :  2.25000e-05
 Reference value :  2.25001e-05
 Reference value :  2.25002e-05
 Reference value :  2.25009e-05
 Reference value :  2.25016e-05
 Reference value :  2.25030e-05
 Reference value :  2.25049e-05
 Reference value :  2.25062e-05
 Reference value :  2.25089e-05
 Reference value :  2.25122e-05
 Reference value :  2.25405e-05
 Reference value :  2.27403e-05
 Reference value :  2.27501e-05
 Reference value :  2.27502e-05
 Reference value :  2.27503e-05
 Reference value :  2.27511e-05
 Reference value :  2.27520e-05
 Reference value :  2.27532e-05
 Reference value :  2.27544e-05
 Reference value :  2.27562e-05
 Reference value :  2.27604e-05
 Reference value :  2.27742e-05
 Reference value :  2.30000e-05
 Reference value :  2.30015e-05
 Reference value :  2.30046e-05
 Reference value :  2.30062e-05
 Reference value :  2.30090e-05
 Reference value :  2.30113e-05
 Reference value :  2.30134e-05
 Reference value :  2.30151e-05
 Reference value :  2.30160e-05
 Reference value :  2.30190e-05
 Reference value :  2.30218e-05
 Reference value :  2.30333e-05
 Reference value :  2.30699e-05
 Reference value :  2.32501e-05
 Reference value :  2.32502e-05
 Reference value :  2.32502e-05
 Reference value :  2.32504e-05
 Reference value :  2.32516e-05
 Reference value :  2.32532e-05
 Reference value :  2.32543e-05
 Reference value :  2.32555e-05
 Reference value :  2.32591e-05
 Reference value :  2.32830e-05
 Reference value :  2.35000e-05
 Reference value :  2.35001e-05
 Reference value :  2.35002e-05
 Reference value :  2.35005e-05
 Reference value :  2.35012e-05
 Reference value :  2.35020e-05
 Reference value :  2.35030e-05
 Reference value :  2.35041e-05
 Reference value :  2.35056e-05
 Reference value :  2.35062e-05
 Reference value :  2.35079e-05
 Reference value :  2.35099e-05
 Reference value :  2.35122e-05
 Reference value :  2.35262e-05
 Reference value :  2.36262e-05
 Reference value :  2.37501e-05
 Reference value :  2.37502e-05
 Reference value :  2.37503e-05
 Reference value :  2.37507e-05
 Reference value :  2.37520e-05
 Reference value :  2.37532e-05
 Reference value :  2.37538e-05
 Reference value :  2.37549e-05
 Reference value :  2.37562e-05
 Reference value :  2.37579e-05
 Reference value :  2.37604e-05
 Reference value :  2.37679e-05
 Reference value :  2.38018e-05
 Reference value :  2.40000e-05
 Reference value :  2.40001e-05
 Reference value :  2.40001e-05
 Reference value :  2.40002e-05
 Reference value :  2.40005e-05
 Reference value :  2.40012e-05
 Reference value :  2.40016e-05
 Reference value :  2.40031e-05
 Reference value :  2.40047e-05
 Reference value :  2.40057e-05
 Reference value :  2.40081e-05
 Reference value :  2.40101e-05
 Reference value :  2.40120e-05
 Reference value :  2.40137e-05
 Reference value :  2.40153e-05
 Reference value :  2.40181e-05
 Reference value :  2.40228e-05
 Reference value :  2.40462e-05
 Reference value :  2.41491e-05
 Reference value :  2.42501e-05
 Reference value :  2.42502e-05
 Reference value :  2.42503e-05
 Reference value :  2.42511e-05
 Reference value :  2.42520e-05
 Reference value :  2.42532e-05
 Reference value :  2.42543e-05
 Reference value :  2.42556e-05
 Reference value :  2.42595e-05
 Reference value :  2.42849e-05
 Reference value :  2.45000e-05
 Reference value :  2.45001e-05
 Reference value :  2.45002e-05
 Reference value :  2.45005e-05
 Reference value :  2.45012e-05
 Reference value :  2.45020e-05
 Reference value :  2.45030e-05
 Reference value :  2.45049e-05
 Reference value :  2.45062e-05
 Reference value :  2.45079e-05
 Reference value :  2.45111e-05
 Reference value :  2.45262e-05
 Reference value :  2.47405e-05
 Reference value :  2.47501e-05
 Reference value :  2.47502e-05
 Reference value :  2.47507e-05
 Reference value :  2.47516e-05
 Reference value :  2.47525e-05
 Reference value :  2.47538e-05
 Reference value :  2.47549e-05
 Reference value :  2.47562e-05
 Reference value :  2.47578e-05
 Reference value :  2.47604e-05
 Reference value :  2.47742e-05
 Reference value :  2.49020e-05
 Reference value :  2.50001e-05
 Reference value :  2.50001e-05
 Reference value :  2.50003e-05
 Reference value :  2.50009e-05
 Reference value :  2.50016e-05
 Reference value :  2.50031e-05
 Reference value :  2.50041e-05
 Reference value :  2.50052e-05
 Reference value :  2.50070e-05
 Reference value :  2.50077e-05
 Reference value :  2.50093e-05
 Reference value :  2.50109e-05
 Reference value :  2.50155e-05
 Reference value :  2.50209e-05
 Reference value :  2.50397e-05
 Reference value :  2.50483e-05
 Reference value :  2.50749e-05
 Reference value :  2.51086e-05
 Reference value :  2.52501e-05
 Reference value :  2.52502e-05
 Reference value :  2.52504e-05
 Reference value :  2.52520e-05
 Reference value :  2.52548e-05
 Reference value :  2.52584e-05
 Reference value :  2.52892e-05
 Reference value :  2.55000e-05
 Reference value :  2.55000e-05
 Reference value :  2.55001e-05
 Reference value :  2.55001e-05
 Reference value :  2.55007e-05
 Reference value :  2.55020e-05
 Reference value :  2.55031e-05
 Reference value :  2.55046e-05
 Reference value :  2.55065e-05
 Reference value :  2.55229e-05
 Reference value :  2.55289e-05
 Reference value :  2.55332e-05
 Reference value :  2.55393e-05
 Reference value :  2.55540e-05
 Reference value :  2.55806e-05
 Reference value :  2.56706e-05
 Reference value :  2.57039e-05
 Reference value :  2.57391e-05
 Reference value :  2.57502e-05
 Reference value :  2.57503e-05
 Reference value :  2.57516e-05
 Reference value :  2.57532e-05
 Reference value :  2.57557e-05
 Reference value :  2.57725e-05
 Reference value :  2.60000e-05
 Reference value :  2.60001e-05
 Reference value :  2.60009e-05
 Reference value :  2.60025e-05
 Reference value :  2.60041e-05
 Reference value :  2.60086e-05
 Reference value :  2.60113e-05
 Reference value :  2.60142e-05
 Reference value :  2.60333e-05
 Reference value :  2.62501e-05
 Reference value :  2.62502e-05
 Reference value :  2.62503e-05
 Reference value :  2.62507e-05
 Reference value :  2.62516e-05
 Reference value :  2.62525e-05
 Reference value :  2.62538e-05
 Reference value :  2.62549e-05
 Reference value :  2.62562e-05
 Reference value :  2.62576e-05
 Reference value :  2.62609e-05
 Reference value :  2.62750e-05
 Reference value :  2.63413e-05
 Reference value :  2.65009e-05
 Reference value :  2.65038e-05
 Reference value :  2.65056e-05
 Reference value :  2.65083e-05
 Reference value :  2.65104e-05
 Reference value :  2.65123e-05
 Reference value :  2.65141e-05
 Reference value :  2.65157e-05
 Reference value :  2.65185e-05
 Reference value :  2.65232e-05
 Reference value :  2.65340e-05
 Reference value :  2.65637e-05
 Reference value :  2.66723e-05
 Reference value :  2.67501e-05
 Reference value :  2.67502e-05
 Reference value :  2.67502e-05
 Reference value :  2.67504e-05
 Reference value :  2.67511e-05
 Reference value :  2.67520e-05
 Reference value :  2.67531e-05
 Reference value :  2.67536e-05
 Reference value :  2.67548e-05
 Reference value :  2.67574e-05
 Reference value :  2.67706e-05
 Reference value :  2.69353e-05
 Reference value :  2.70001e-05
 Reference value :  2.70001e-05
 Reference value :  2.70003e-05
 Reference value :  2.70009e-05
 Reference value :  2.70016e-05
 Reference value :  2.70030e-05
 Reference value :  2.70049e-05
 Reference value :  2.70062e-05
 Reference value :  2.70079e-05
 Reference value :  2.70111e-05
 Reference value :  2.70262e-05
 Reference value :  2.72406e-05
 Reference value :  2.72501e-05
 Reference value :  2.72502e-05
 Reference value :  2.72504e-05
 Reference value :  2.72516e-05
 Reference value :  2.72525e-05
 Reference value :  2.72538e-05
 Reference value :  2.72549e-05
 Reference value :  2.72562e-05
 Reference value :  2.72589e-05
 Reference value :  2.72647e-05
 Reference value :  2.73016e-05
 Reference value :  2.75000e-05
 Reference value :  2.75001e-05
 Reference value :  2.75002e-05
 Reference value :  2.75005e-05
 Reference value :  2.75012e-05
 Reference value :  2.75021e-05
 Reference value :  2.75031e-05
 Reference value :  2.75047e-05
 Reference value :  2.75057e-05
 Reference value :  2.75081e-05
 Reference value :  2.75101e-05
 Reference value :  2.75120e-05
 Reference value :  2.75137e-05
 Reference value :  2.75153e-05
 Reference value :  2.75181e-05
 Reference value :  2.75226e-05
 Reference value :  2.75546e-05
 Reference value :  2.76564e-05
 Reference value :  2.77259e-05
 Reference value :  2.77425e-05
 Reference value :  2.77501e-05
 Reference value :  2.77502e-05
 Reference value :  2.77503e-05
 Reference value :  2.77511e-05
 Reference value :  2.77520e-05
 Reference value :  2.77532e-05
 Reference value :  2.77544e-05
 Reference value :  2.77557e-05
 Reference value :  2.77596e-05
 Reference value :  2.77855e-05
 Reference value :  2.80000e-05
 Reference value :  2.80007e-05
 Reference value :  2.80030e-05
 Reference value :  2.80044e-05
 Reference value :  2.80060e-05
 Reference value :  2.80075e-05
 Reference value :  2.80092e-05
 Reference value :  2.80112e-05
 Reference value :  2.80270e-05
 Reference value :  2.82501e-05
 Reference value :  2.82502e-05
 Reference value :  2.82503e-05
 Reference value :  2.82516e-05
 Reference value :  2.82532e-05
 Reference value :  2.82548e-05
 Reference value :  2.82587e-05
 Reference value :  2.84158e-05
 Reference value :  2.85001e-05
 Reference value :  2.85005e-05
 Reference value :  2.85012e-05
 Reference value :  2.85021e-05
 Reference value :  2.85031e-05
 Reference value :  2.85047e-05
 Reference value :  2.85058e-05
 Reference value :  2.85103e-05
 Reference value :  2.85145e-05
 Reference value :  2.85165e-05
 Reference value :  2.85219e-05
 Reference value :  2.85441e-05
 Reference value :  2.85636e-05
 Reference value :  2.85815e-05
 Reference value :  2.86338e-05
 Reference value :  2.87501e-05
 Reference value :  2.87502e-05
 Reference value :  2.87504e-05
 Reference value :  2.87516e-05
 Reference value :  2.87525e-05
 Reference value :  2.87537e-05
 Reference value :  2.87557e-05
 Reference value :  2.87597e-05
 Reference value :  2.87859e-05
 Reference value :  2.90000e-05
 Reference value :  2.90005e-05
 Reference value :  2.90019e-05
 Reference value :  2.90042e-05
 Reference value :  2.90063e-05
 Reference value :  2.90080e-05
 Reference value :  2.90110e-05
 Reference value :  2.90425e-05
 Reference value :  2.92501e-05
 Reference value :  2.92502e-05
 Reference value :  2.92504e-05
 Reference value :  2.92520e-05
 Reference value :  2.92538e-05
 Reference value :  2.92549e-05
 Reference value :  2.92562e-05
 Reference value :  2.92589e-05
 Reference value :  2.92648e-05
 Reference value :  2.92847e-05
 Reference value :  2.95000e-05
 Reference value :  2.95001e-05
 Reference value :  2.95001e-05
 Reference value :  2.95003e-05
 Reference value :  2.95009e-05
 Reference value :  2.95016e-05
 Reference value :  2.95031e-05
 Reference value :  2.95042e-05
 Reference value :  2.95052e-05
 Reference value :  2.95071e-05
 Reference value :  2.95092e-05
 Reference value :  2.95101e-05
 Reference value :  2.95120e-05
 Reference value :  2.95137e-05
 Reference value :  2.95153e-05
 Reference value :  2.95181e-05
 Reference value :  2.95256e-05
 Reference value :  2.95655e-05
 Reference value :  2.95850e-05
 Reference value :  2.96122e-05
 Reference value :  2.97208e-05
 Reference value :  2.97501e-05
 Reference value :  2.97502e-05
 Reference value :  2.97503e-05
 Reference value :  2.97511e-05
 Reference value :  2.97520e-05
 Reference value :  2.97532e-05
 Reference value :  2.97538e-05
 Reference value :  2.97550e-05
 Reference value :  2.97580e-05
 Reference value :  2.97724e-05
 Reference value :  2.98642e-05
 Reference value :  3.00000e-05
 Reference value :  3.00001e-05
 Reference value :  3.00002e-05
 Reference value :  3.00005e-05
 Reference value :  3.00012e-05
 Reference value :  3.00021e-05
 Reference value :  3.00031e-05
 Reference value :  3.00049e-05
 Reference value :  3.00063e-05
 Reference value :  3.00079e-05
 Reference value :  3.00109e-05
 Reference value :  3.00416e-05
 Reference value :  3.02501e-05
 Reference value :  3.02502e-05
 Reference value :  3.02503e-05
 Reference value :  3.02511e-05
 Reference value :  3.02520e-05
 Reference value :  3.02538e-05
 Reference value :  3.02549e-05
 Reference value :  3.02572e-05
 Reference value :  3.02810e-05
 Reference value :  3.05012e-05
 Reference value :  3.05046e-05
 Reference value :  3.05077e-05
 Reference value :  3.05118e-05
 Reference value :  3.05141e-05
 Reference value :  3.05175e-05
 Reference value :  3.05256e-05
 Reference value :  3.05445e-05
 Reference value :  3.05567e-05
 Reference value :  3.05864e-05
 Reference value :  3.07501e-05
 Reference value :  3.07502e-05
 Reference value :  3.07502e-05
 Reference value :  3.07504e-05
 Reference value :  3.07516e-05
 Reference value :  3.07525e-05
 Reference value :  3.07536e-05
 Reference value :  3.07554e-05
 Reference value :  3.07613e-05
 Reference value :  3.08415e-05
 Reference value :  3.10001e-05
 Reference value :  3.10002e-05
 Reference value :  3.10009e-05
 Reference value :  3.10020e-05
 Reference value :  3.10036e-05
 Reference value :  3.10056e-05
 Reference value :  3.10069e-05
 Reference value :  3.10099e-05
 Reference value :  3.10262e-05
 Reference value :  3.12501e-05
 Reference value :  3.12502e-05
 Reference value :  3.12504e-05
 Reference value :  3.12520e-05
 Reference value :  3.12538e-05
 Reference value :  3.12555e-05
 Reference value :  3.12579e-05
 Reference value :  3.12647e-05
 Reference value :  3.14047e-05
 Reference value :  3.15000e-05
 Reference value :  3.15001e-05
 Reference value :  3.15002e-05
 Reference value :  3.15009e-05
 Reference value :  3.15016e-05
 Reference value :  3.15026e-05
 Reference value :  3.15036e-05
 Reference value :  3.15047e-05
 Reference value :  3.15057e-05
 Reference value :  3.15081e-05
 Reference value :  3.15101e-05
 Reference value :  3.15120e-05
 Reference value :  3.15137e-05
 Reference value :  3.15153e-05
 Reference value :  3.15182e-05
 Reference value :  3.15211e-05
 Reference value :  3.15328e-05
 Reference value :  3.15536e-05
 Reference value :  3.16308e-05
 Reference value :  3.17501e-05
 Reference value :  3.17502e-05
 Reference value :  3.17503e-05
 Reference value :  3.17507e-05
 Reference value :  3.17516e-05
 Reference value :  3.17525e-05
 Reference value :  3.17538e-05
 Reference value :  3.17550e-05
 Reference value :  3.17595e-05
 Reference value :  3.17720e-05
 Reference value :  3.18617e-05
 Reference value :  3.20000e-05
 Reference value :  3.20001e-05
 Reference value :  3.20002e-05
 Reference value :  3.20005e-05
 Reference value :  3.20012e-05
 Reference value :  3.20020e-05
 Reference value :  3.20030e-05
 Reference value :  3.20041e-05
 Reference value :  3.20056e-05
 Reference value :  3.20062e-05
 Reference value :  3.20079e-05
 Reference value :  3.20111e-05
 Reference value :  3.20262e-05
 Reference value :  3.22501e-05
 Reference value :  3.22502e-05
 Reference value :  3.22503e-05
 Reference value :  3.22507e-05
 Reference value :  3.22516e-05
 Reference value :  3.22520e-05
 Reference value :  3.22532e-05
 Reference value :  3.22544e-05
 Reference value :  3.22555e-05
 Reference value :  3.22570e-05
 Reference value :  3.22604e-05
 Reference value :  3.22742e-05
 Reference value :  3.23362e-05
 Reference value :  3.25000e-05
 Reference value :  3.25001e-05
 Reference value :  3.25002e-05
 Reference value :  3.25005e-05
 Reference value :  3.25012e-05
 Reference value :  3.25021e-05
 Reference value :  3.25031e-05
 Reference value :  3.25047e-05
 Reference value :  3.25064e-05
 Reference value :  3.25092e-05
 Reference value :  3.25110e-05
 Reference value :  3.25120e-05
 Reference value :  3.25137e-05
 Reference value :  3.25153e-05
 Reference value :  3.25181e-05
 Reference value :  3.25228e-05
 Reference value :  3.25366e-05
 Reference value :  3.26029e-05
 Reference value :  3.27501e-05
 Reference value :  3.27502e-05
 Reference value :  3.27502e-05
 Reference value :  3.27504e-05
 Reference value :  3.27516e-05
 Reference value :  3.27532e-05
 Reference value :  3.27543e-05
 Reference value :  3.27564e-05
 Reference value :  3.27656e-05
 Reference value :  3.28106e-05
 Reference value :  3.30000e-05
 Reference value :  3.30001e-05
 Reference value :  3.30001e-05
 Reference value :  3.30002e-05
 Reference value :  3.30005e-05
 Reference value :  3.30009e-05
 Reference value :  3.30016e-05
 Reference value :  3.30020e-05
 Reference value :  3.30025e-05
 Reference value :  3.30030e-05
 Reference value :  3.30036e-05
 Reference value :  3.30049e-05
 Reference value :  3.30062e-05
 Reference value :  3.30079e-05
 Reference value :  3.30099e-05
 Reference value :  3.30122e-05
 Reference value :  3.30191e-05
 Reference value :  3.30691e-05
 Reference value :  3.32501e-05
 Reference value :  3.32501e-05
 Reference value :  3.32502e-05
 Reference value :  3.32503e-05
 Reference value :  3.32511e-05
 Reference value :  3.32520e-05
 Reference value :  3.32532e-05
 Reference value :  3.32544e-05
 Reference value :  3.32555e-05
 Reference value :  3.32570e-05
 Reference value :  3.32604e-05
 Reference value :  3.32679e-05
 Reference value :  3.33011e-05
 Reference value :  3.35000e-05
 Reference value :  3.35016e-05
 Reference value :  3.35047e-05
 Reference value :  3.35063e-05
 Reference value :  3.35092e-05
 Reference value :  3.35114e-05
 Reference value :  3.35160e-05
 Reference value :  3.35193e-05
 Reference value :  3.35255e-05
 Reference value :  3.35322e-05
 Reference value :  3.35391e-05
 Reference value :  3.35598e-05
 Reference value :  3.36704e-05
 Reference value :  3.37501e-05
 Reference value :  3.37502e-05
 Reference value :  3.37503e-05
 Reference value :  3.37511e-05
 Reference value :  3.37520e-05
 Reference value :  3.37532e-05
 Reference value :  3.37548e-05
 Reference value :  3.37567e-05
 Reference value :  3.37600e-05
 Reference value :  3.37734e-05
 Reference value :  3.39853e-05
 Reference value :  3.40000e-05
 Reference value :  3.40000e-05
 Reference value :  3.40000e-05
 Reference value :  3.40001e-05
 Reference value :  3.40001e-05
 Reference value :  3.40003e-05
 Reference value :  3.40012e-05
 Reference value :  3.40020e-05
 Reference value :  3.40031e-05
 Reference value :  3.40036e-05
 Reference value :  3.40046e-05
 Reference value :  3.40058e-05
 Reference value :  3.40095e-05
 Reference value :  3.40228e-05
 Reference value :  3.40289e-05
 Reference value :  3.40332e-05
 Reference value :  3.40393e-05
 Reference value :  3.40456e-05
 Reference value :  3.40597e-05
 Reference value :  3.40722e-05
 Reference value :  3.41041e-05
 Reference value :  3.41758e-05
 Reference value :  3.42094e-05
 Reference value :  3.42332e-05
 Reference value :  3.42501e-05
 Reference value :  3.42502e-05
 Reference value :  3.42503e-05
 Reference value :  3.42511e-05
 Reference value :  3.42520e-05
 Reference value :  3.42532e-05
 Reference value :  3.42537e-05
 Reference value :  3.42550e-05
 Reference value :  3.42581e-05
 Reference value :  3.42659e-05
 Reference value :  3.43129e-05
 Reference value :  3.45000e-05
 Reference value :  3.45001e-05
 Reference value :  3.45001e-05
 Reference value :  3.45003e-05
 Reference value :  3.45012e-05
 Reference value :  3.45020e-05
 Reference value :  3.45030e-05
 Reference value :  3.45049e-05
 Reference value :  3.45086e-05
 Reference value :  3.45113e-05
 Reference value :  3.45126e-05
 Reference value :  3.45179e-05
 Reference value :  3.45333e-05
 Reference value :  3.47042e-05
 Reference value :  3.47501e-05
 Reference value :  3.47502e-05
 Reference value :  3.47502e-05
 Reference value :  3.47503e-05
 Reference value :  3.47507e-05
 Reference value :  3.47516e-05
 Reference value :  3.47525e-05
 Reference value :  3.47538e-05
 Reference value :  3.47549e-05
 Reference value :  3.47562e-05
 Reference value :  3.47576e-05
 Reference value :  3.47594e-05
 Reference value :  3.47655e-05
 Reference value :  3.47833e-05
 Reference value :  3.48412e-05
 Reference value :  3.50000e-05
 Reference value :  3.50001e-05
 Reference value :  3.50001e-05
 Reference value :  3.50003e-05
 Reference value :  3.50009e-05
 Reference value :  3.50016e-05
 Reference value :  3.50031e-05
 Reference value :  3.50042e-05
 Reference value :  3.50052e-05
 Reference value :  3.50064e-05
 Reference value :  3.50081e-05
 Reference value :  3.50101e-05
 Reference value :  3.50120e-05
 Reference value :  3.50137e-05
 Reference value :  3.50153e-05
 Reference value :  3.50171e-05
 Reference value :  3.50191e-05
 Reference value :  3.50227e-05
 Reference value :  3.50406e-05
 Reference value :  3.51479e-05
 Reference value :  3.52501e-05
 Reference value :  3.52502e-05
 Reference value :  3.52504e-05
 Reference value :  3.52520e-05
 Reference value :  3.52538e-05
 Reference value :  3.52550e-05
 Reference value :  3.52580e-05
 Reference value :  3.52720e-05
 Reference value :  3.53618e-05
 Reference value :  3.55000e-05
 Reference value :  3.55001e-05
 Reference value :  3.55005e-05
 Reference value :  3.55012e-05
 Reference value :  3.55020e-05
 Reference value :  3.55030e-05
 Reference value :  3.55049e-05
 Reference value :  3.55062e-05
 Reference value :  3.55079e-05
 Reference value :  3.55099e-05
 Reference value :  3.55145e-05
 Reference value :  3.55405e-05
 Reference value :  3.57501e-05
 Reference value :  3.57502e-05
 Reference value :  3.57503e-05
 Reference value :  3.57507e-05
 Reference value :  3.57520e-05
 Reference value :  3.57538e-05
 Reference value :  3.57549e-05
 Reference value :  3.57562e-05
 Reference value :  3.57589e-05
 Reference value :  3.57679e-05
 Reference value :  3.58359e-05
 Reference value :  3.60017e-05
 Reference value :  3.60052e-05
 Reference value :  3.60070e-05
 Reference value :  3.60102e-05
 Reference value :  3.60128e-05
 Reference value :  3.60140e-05
 Reference value :  3.60162e-05
 Reference value :  3.60182e-05
 Reference value :  3.60228e-05
 Reference value :  3.60478e-05
 Reference value :  3.61395e-05
 Reference value :  3.62138e-05
 Reference value :  3.62346e-05
 Reference value :  3.62501e-05
 Reference value :  3.62502e-05
 Reference value :  3.62503e-05
 Reference value :  3.62511e-05
 Reference value :  3.62520e-05
 Reference value :  3.62536e-05
 Reference value :  3.62565e-05
 Reference value :  3.62717e-05
 Reference value :  3.64939e-05
 Reference value :  3.65001e-05
 Reference value :  3.65002e-05
 Reference value :  3.65009e-05
 Reference value :  3.65021e-05
 Reference value :  3.65036e-05
 Reference value :  3.65057e-05
 Reference value :  3.65080e-05
 Reference value :  3.65109e-05
 Reference value :  3.65190e-05
 Reference value :  3.66321e-05
 Reference value :  3.67501e-05
 Reference value :  3.67502e-05
 Reference value :  3.67503e-05
 Reference value :  3.67511e-05
 Reference value :  3.67525e-05
 Reference value :  3.67538e-05
 Reference value :  3.67555e-05
 Reference value :  3.67590e-05
 Reference value :  3.68027e-05
 Reference value :  3.70000e-05
 Reference value :  3.70001e-05
 Reference value :  3.70003e-05
 Reference value :  3.70009e-05
 Reference value :  3.70016e-05
 Reference value :  3.70026e-05
 Reference value :  3.70036e-05
 Reference value :  3.70047e-05
 Reference value :  3.70058e-05
 Reference value :  3.70073e-05
 Reference value :  3.70103e-05
 Reference value :  3.70134e-05
 Reference value :  3.70156e-05
 Reference value :  3.70187e-05
 Reference value :  3.70243e-05
 Reference value :  3.70365e-05
 Reference value :  3.70528e-05
 Reference value :  3.70651e-05
 Reference value :  3.70768e-05
 Reference value :  3.70979e-05
 Reference value :  3.71364e-05
 Reference value :  3.72501e-05
 Reference value :  3.72502e-05
 Reference value :  3.72504e-05
 Reference value :  3.72516e-05
 Reference value :  3.72532e-05
 Reference value :  3.72550e-05
 Reference value :  3.72597e-05
 Reference value :  3.73125e-05
 Reference value :  3.75000e-05
 Reference value :  3.75001e-05
 Reference value :  3.75003e-05
 Reference value :  3.75012e-05
 Reference value :  3.75025e-05
 Reference value :  3.75041e-05
 Reference value :  3.75056e-05
 Reference value :  3.75070e-05
 Reference value :  3.75099e-05
 Reference value :  3.75191e-05
 Reference value :  3.77393e-05
 Reference value :  3.77502e-05
 Reference value :  3.77503e-05
 Reference value :  3.77507e-05
 Reference value :  3.77520e-05
 Reference value :  3.77538e-05
 Reference value :  3.77549e-05
 Reference value :  3.77562e-05
 Reference value :  3.77589e-05
 Reference value :  3.77647e-05
 Reference value :  3.78016e-05
 Reference value :  3.80000e-05
 Reference value :  3.80001e-05
 Reference value :  3.80002e-05
 Reference value :  3.80005e-05
 Reference value :  3.80012e-05
 Reference value :  3.80021e-05
 Reference value :  3.80031e-05
 Reference value :  3.80047e-05
 Reference value :  3.80057e-05
 Reference value :  3.80071e-05
 Reference value :  3.80081e-05
 Reference value :  3.80101e-05
 Reference value :  3.80120e-05
 Reference value :  3.80137e-05
 Reference value :  3.80153e-05
 Reference value :  3.80181e-05
 Reference value :  3.80256e-05
 Reference value :  3.80656e-05
 Reference value :  3.80845e-05
 Reference value :  3.81437e-05
 Reference value :  3.82501e-05
 Reference value :  3.82502e-05
 Reference value :  3.82503e-05
 Reference value :  3.82511e-05
 Reference value :  3.82520e-05
 Reference value :  3.82532e-05
 Reference value :  3.82544e-05
 Reference value :  3.82557e-05
 Reference value :  3.82596e-05
 Reference value :  3.82658e-05
 Reference value :  3.83117e-05
 Reference value :  3.85000e-05
 Reference value :  3.85005e-05
 Reference value :  3.85021e-05
 Reference value :  3.85031e-05
 Reference value :  3.85049e-05
 Reference value :  3.85066e-05
 Reference value :  3.85084e-05
 Reference value :  3.85104e-05
 Reference value :  3.85129e-05
 Reference value :  3.85357e-05
 Reference value :  3.87501e-05
 Reference value :  3.87502e-05
 Reference value :  3.87502e-05
 Reference value :  3.87504e-05
 Reference value :  3.87516e-05
 Reference value :  3.87525e-05
 Reference value :  3.87538e-05
 Reference value :  3.87555e-05
 Reference value :  3.87590e-05
 Reference value :  3.87808e-05
 Reference value :  3.89340e-05
 Reference value :  3.90000e-05
 Reference value :  3.90001e-05
 Reference value :  3.90002e-05
 Reference value :  3.90009e-05
 Reference value :  3.90016e-05
 Reference value :  3.90031e-05
 Reference value :  3.90042e-05
 Reference value :  3.90052e-05
 Reference value :  3.90073e-05
 Reference value :  3.90103e-05
 Reference value :  3.90134e-05
 Reference value :  3.90145e-05
 Reference value :  3.90165e-05
 Reference value :  3.90187e-05
 Reference value :  3.90219e-05
 Reference value :  3.90343e-05
 Reference value :  3.90510e-05
 Reference value :  3.90607e-05
 Reference value :  3.90723e-05
 Reference value :  3.91054e-05
 Reference value :  3.92501e-05
 Reference value :  3.92502e-05
 Reference value :  3.92503e-05
 Reference value :  3.92507e-05
 Reference value :  3.92520e-05
 Reference value :  3.92537e-05
 Reference value :  3.92557e-05
 Reference value :  3.92580e-05
 Reference value :  3.92659e-05
 Reference value :  3.92859e-05
 Reference value :  3.94725e-05
 Reference value :  3.95000e-05
 Reference value :  3.95001e-05
 Reference value :  3.95002e-05
 Reference value :  3.95009e-05
 Reference value :  3.95020e-05
 Reference value :  3.95030e-05
 Reference value :  3.95041e-05
 Reference value :  3.95062e-05
 Reference value :  3.95080e-05
 Reference value :  3.95099e-05
 Reference value :  3.95145e-05
 Reference value :  3.95688e-05
 Reference value :  3.97501e-05
 Reference value :  3.97501e-05
 Reference value :  3.97502e-05
 Reference value :  3.97504e-05
 Reference value :  3.97516e-05
 Reference value :  3.97525e-05
 Reference value :  3.97538e-05
 Reference value :  3.97549e-05
 Reference value :  3.97562e-05
 Reference value :  3.97589e-05
 Reference value :  3.97647e-05
 Reference value :  3.98017e-05
 Reference value :  4.00000e-05
 Reference value :  4.00001e-05
 Reference value :  4.00002e-05
 Reference value :  4.00005e-05
 Reference value :  4.00009e-05
 Reference value :  4.00016e-05
 Reference value :  4.00026e-05
 Reference value :  4.00031e-05
 Reference value :  4.00042e-05
 Reference value :  4.00052e-05
 Reference value :  4.00064e-05
 Reference value :  4.00081e-05
 Reference value :  4.00101e-05
 Reference value :  4.00120e-05
 Reference value :  4.00137e-05
 Reference value :  4.00172e-05
 Reference value :  4.00211e-05
 Reference value :  4.00392e-05
 Reference value :  4.00972e-05
 Reference value :  4.02501e-05
 Reference value :  4.02502e-05
 Reference value :  4.02504e-05
 Reference value :  4.02516e-05
 Reference value :  4.02525e-05
 Reference value :  4.02538e-05
 Reference value :  4.02550e-05
 Reference value :  4.02595e-05
 Reference value :  4.03105e-05
 Reference value :  4.05000e-05
 Reference value :  4.05001e-05
 Reference value :  4.05003e-05
 Reference value :  4.05009e-05
 Reference value :  4.05020e-05
 Reference value :  4.05036e-05
 Reference value :  4.05056e-05
 Reference value :  4.05062e-05
 Reference value :  4.05079e-05
 Reference value :  4.05099e-05
 Reference value :  4.05145e-05
 Reference value :  4.05691e-05
 Reference value :  4.07501e-05
 Reference value :  4.07502e-05
 Reference value :  4.07502e-05
 Reference value :  4.07503e-05
 Reference value :  4.07507e-05
 Reference value :  4.07516e-05
 Reference value :  4.07520e-05
 Reference value :  4.07532e-05
 Reference value :  4.07538e-05
 Reference value :  4.07549e-05
 Reference value :  4.07562e-05
 Reference value :  4.07579e-05
 Reference value :  4.07604e-05
 Reference value :  4.07679e-05
 Reference value :  4.08017e-05
 Reference value :  4.10000e-05
 Reference value :  4.10015e-05
 Reference value :  4.10046e-05
 Reference value :  4.10061e-05
 Reference value :  4.10090e-05
 Reference value :  4.10113e-05
 Reference value :  4.10123e-05
 Reference value :  4.10143e-05
 Reference value :  4.10161e-05
 Reference value :  4.10180e-05
 Reference value :  4.10200e-05
 Reference value :  4.10236e-05
 Reference value :  4.10382e-05
 Reference value :  4.10921e-05
 Reference value :  4.11822e-05
 Reference value :  4.12501e-05
 Reference value :  4.12502e-05
 Reference value :  4.12502e-05
 Reference value :  4.12504e-05
 Reference value :  4.12516e-05
 Reference value :  4.12525e-05
 Reference value :  4.12537e-05
 Reference value :  4.12549e-05
 Reference value :  4.12576e-05
 Reference value :  4.12648e-05
 Reference value :  4.12781e-05
 Reference value :  4.12971e-05
 Reference value :  4.13606e-05
 Reference value :  4.15000e-05
 Reference value :  4.15001e-05
 Reference value :  4.15002e-05
 Reference value :  4.15005e-05
 Reference value :  4.15009e-05
 Reference value :  4.15016e-05
 Reference value :  4.15026e-05
 Reference value :  4.15031e-05
 Reference value :  4.15042e-05
 Reference value :  4.15057e-05
 Reference value :  4.15063e-05
 Reference value :  4.15079e-05
 Reference value :  4.15111e-05
 Reference value :  4.15190e-05
 Reference value :  4.15693e-05
 Reference value :  4.17501e-05
 Reference value :  4.17501e-05
 Reference value :  4.17502e-05
 Reference value :  4.17503e-05
 Reference value :  4.17511e-05
 Reference value :  4.17520e-05
 Reference value :  4.17538e-05
 Reference value :  4.17549e-05
 Reference value :  4.17572e-05
 Reference value :  4.17644e-05
 Reference value :  4.19346e-05
 Reference value :  4.20001e-05
 Reference value :  4.20002e-05
 Reference value :  4.20005e-05
 Reference value :  4.20016e-05
 Reference value :  4.20031e-05
 Reference value :  4.20047e-05
 Reference value :  4.20058e-05
 Reference value :  4.20074e-05
 Reference value :  4.20090e-05
 Reference value :  4.20111e-05
 Reference value :  4.20257e-05
 Reference value :  4.22501e-05
 Reference value :  4.22502e-05
 Reference value :  4.22503e-05
 Reference value :  4.22511e-05
 Reference value :  4.22520e-05
 Reference value :  4.22532e-05
 Reference value :  4.22548e-05
 Reference value :  4.22568e-05
 Reference value :  4.22584e-05
 Reference value :  4.22668e-05
 Reference value :  4.23191e-05
 Reference value :  4.25000e-05
 Reference value :  4.25000e-05
 Reference value :  4.25000e-05
 Reference value :  4.25000e-05
 Reference value :  4.25000e-05
 Reference value :  4.25001e-05
 Reference value :  4.25001e-05
 Reference value :  4.25003e-05
 Reference value :  4.25012e-05
 Reference value :  4.25020e-05
 Reference value :  4.25031e-05
 Reference value :  4.25042e-05
 Reference value :  4.25052e-05
 Reference value :  4.25079e-05
 Reference value :  4.25169e-05
 Reference value :  4.25229e-05
 Reference value :  4.25289e-05
 Reference value :  4.25332e-05
 Reference value :  4.25381e-05
 Reference value :  4.25418e-05
 Reference value :  4.25456e-05
 Reference value :  4.25584e-05
 Reference value :  4.25870e-05
 Reference value :  4.26346e-05
 Reference value :  4.26651e-05
 Reference value :  4.26836e-05
 Reference value :  4.26948e-05
 Reference value :  4.27163e-05
 Reference value :  4.27501e-05
 Reference value :  4.27502e-05
 Reference value :  4.27503e-05
 Reference value :  4.27511e-05
 Reference value :  4.27520e-05
 Reference value :  4.27532e-05
 Reference value :  4.27543e-05
 Reference value :  4.27565e-05
 Reference value :  4.27626e-05
 Reference value :  4.28129e-05
 Reference value :  4.30000e-05
 Reference value :  4.30001e-05
 Reference value :  4.30001e-05
 Reference value :  4.30005e-05
 Reference value :  4.30016e-05
 Reference value :  4.30030e-05
 Reference value :  4.30056e-05
 Reference value :  4.30099e-05
 Reference value :  4.30126e-05
 Reference value :  4.30214e-05
 Reference value :  4.32255e-05
 Reference value :  4.32502e-05
 Reference value :  4.32503e-05
 Reference value :  4.32511e-05
 Reference value :  4.32520e-05
 Reference value :  4.32532e-05
 Reference value :  4.32538e-05
 Reference value :  4.32549e-05
 Reference value :  4.32562e-05
 Reference value :  4.32576e-05
 Reference value :  4.32609e-05
 Reference value :  4.32750e-05
 Reference value :  4.33415e-05
 Reference value :  4.35010e-05
 Reference value :  4.35041e-05
 Reference value :  4.35059e-05
 Reference value :  4.35076e-05
 Reference value :  4.35097e-05
 Reference value :  4.35114e-05
 Reference value :  4.35133e-05
 Reference value :  4.35156e-05
 Reference value :  4.35183e-05
 Reference value :  4.35297e-05
 Reference value :  4.37501e-05
 Reference value :  4.37502e-05
 Reference value :  4.37511e-05
 Reference value :  4.37525e-05
 Reference value :  4.37536e-05
 Reference value :  4.37554e-05
 Reference value :  4.37645e-05
 Reference value :  4.39176e-05
 Reference value :  4.40000e-05
 Reference value :  4.40001e-05
 Reference value :  4.40005e-05
 Reference value :  4.40012e-05
 Reference value :  4.40020e-05
 Reference value :  4.40030e-05
 Reference value :  4.40041e-05
 Reference value :  4.40056e-05
 Reference value :  4.40062e-05
 Reference value :  4.40089e-05
 Reference value :  4.40122e-05
 Reference value :  4.40691e-05
 Reference value :  4.42501e-05
 Reference value :  4.42502e-05
 Reference value :  4.42507e-05
 Reference value :  4.42520e-05
 Reference value :  4.42532e-05
 Reference value :  4.42544e-05
 Reference value :  4.42555e-05
 Reference value :  4.42562e-05
 Reference value :  4.42579e-05
 Reference value :  4.42604e-05
 Reference value :  4.42679e-05
 Reference value :  4.43015e-05
 Reference value :  4.45000e-05
 Reference value :  4.45000e-05
 Reference value :  4.45001e-05
 Reference value :  4.45002e-05
 Reference value :  4.45009e-05
 Reference value :  4.45021e-05
 Reference value :  4.45031e-05
 Reference value :  4.45052e-05
 Reference value :  4.45071e-05
 Reference value :  4.45081e-05
 Reference value :  4.45101e-05
 Reference value :  4.45120e-05
 Reference value :  4.45137e-05
 Reference value :  4.45153e-05
 Reference value :  4.45181e-05
 Reference value :  4.45226e-05
 Reference value :  4.45393e-05
 Reference value :  4.46183e-05
 Reference value :  4.46931e-05
 Reference value :  4.47216e-05
 Reference value :  4.47348e-05
 Reference value :  4.47501e-05
 Reference value :  4.47502e-05
 Reference value :  4.47502e-05
 Reference value :  4.47504e-05
 Reference value :  4.47516e-05
 Reference value :  4.47525e-05
 Reference value :  4.47538e-05
 Reference value :  4.47557e-05
 Reference value :  4.47625e-05
 Reference value :  4.48115e-05
 Reference value :  4.50000e-05
 Reference value :  4.50001e-05
 Reference value :  4.50002e-05
 Reference value :  4.50005e-05
 Reference value :  4.50012e-05
 Reference value :  4.50021e-05
 Reference value :  4.50031e-05
 Reference value :  4.50042e-05
 Reference value :  4.50063e-05
 Reference value :  4.50079e-05
 Reference value :  4.50109e-05
 Reference value :  4.50265e-05
 Reference value :  4.52501e-05
 Reference value :  4.52502e-05
 Reference value :  4.52502e-05
 Reference value :  4.52504e-05
 Reference value :  4.52516e-05
 Reference value :  4.52525e-05
 Reference value :  4.52538e-05
 Reference value :  4.52549e-05
 Reference value :  4.52563e-05
 Reference value :  4.52612e-05
 Reference value :  4.52810e-05
 Reference value :  4.54353e-05
 Reference value :  4.55000e-05
 Reference value :  4.55001e-05
 Reference value :  4.55002e-05
 Reference value :  4.55009e-05
 Reference value :  4.55016e-05
 Reference value :  4.55026e-05
 Reference value :  4.55036e-05
 Reference value :  4.55047e-05
 Reference value :  4.55058e-05
 Reference value :  4.55087e-05
 Reference value :  4.55119e-05
 Reference value :  4.55145e-05
 Reference value :  4.55165e-05
 Reference value :  4.55187e-05
 Reference value :  4.55219e-05
 Reference value :  4.55293e-05
 Reference value :  4.55376e-05
 Reference value :  4.55475e-05
 Reference value :  4.55548e-05
 Reference value :  4.55670e-05
 Reference value :  4.55786e-05
 Reference value :  4.55927e-05
 Reference value :  4.56230e-05
 Reference value :  4.57130e-05
 Reference value :  4.57501e-05
 Reference value :  4.57502e-05
 Reference value :  4.57503e-05
 Reference value :  4.57511e-05
 Reference value :  4.57520e-05
 Reference value :  4.57532e-05
 Reference value :  4.57543e-05
 Reference value :  4.57565e-05
 Reference value :  4.57659e-05
 Reference value :  4.58126e-05
 Reference value :  4.60000e-05
 Reference value :  4.60005e-05
 Reference value :  4.60019e-05
 Reference value :  4.60042e-05
 Reference value :  4.60063e-05
 Reference value :  4.60080e-05
 Reference value :  4.60099e-05
 Reference value :  4.60121e-05
 Reference value :  4.60267e-05
 Reference value :  4.61345e-05
 Reference value :  4.62501e-05
 Reference value :  4.62502e-05
 Reference value :  4.62503e-05
 Reference value :  4.62507e-05
 Reference value :  4.62516e-05
 Reference value :  4.62520e-05
 Reference value :  4.62532e-05
 Reference value :  4.62538e-05
 Reference value :  4.62549e-05
 Reference value :  4.62562e-05
 Reference value :  4.62579e-05
 Reference value :  4.62621e-05
 Reference value :  4.62743e-05
 Reference value :  4.63379e-05
 Reference value :  4.65000e-05
 Reference value :  4.65001e-05
 Reference value :  4.65002e-05
 Reference value :  4.65003e-05
 Reference value :  4.65009e-05
 Reference value :  4.65016e-05
 Reference value :  4.65026e-05
 Reference value :  4.65036e-05
 Reference value :  4.65047e-05
 Reference value :  4.65057e-05
 Reference value :  4.65081e-05
 Reference value :  4.65101e-05
 Reference value :  4.65120e-05
 Reference value :  4.65137e-05
 Reference value :  4.65153e-05
 Reference value :  4.65181e-05
 Reference value :  4.65226e-05
 Reference value :  4.65391e-05
 Reference value :  4.65643e-05
 Reference value :  4.65821e-05
 Reference value :  4.66037e-05
 Reference value :  4.67049e-05
 Reference value :  4.67502e-05
 Reference value :  4.67503e-05
 Reference value :  4.67511e-05
 Reference value :  4.67520e-05
 Reference value :  4.67532e-05
 Reference value :  4.67544e-05
 Reference value :  4.67557e-05
 Reference value :  4.67596e-05
 Reference value :  4.67724e-05
 Reference value :  4.69692e-05
 Reference value :  4.70001e-05
 Reference value :  4.70001e-05
 Reference value :  4.70003e-05
 Reference value :  4.70009e-05
 Reference value :  4.70016e-05
 Reference value :  4.70031e-05
 Reference value :  4.70042e-05
 Reference value :  4.70057e-05
 Reference value :  4.70063e-05
 Reference value :  4.70079e-05
 Reference value :  4.70098e-05
 Reference value :  4.70121e-05
 Reference value :  4.70265e-05
 Reference value :  4.72501e-05
 Reference value :  4.72502e-05
 Reference value :  4.72503e-05
 Reference value :  4.72507e-05
 Reference value :  4.72520e-05
 Reference value :  4.72538e-05
 Reference value :  4.72549e-05
 Reference value :  4.72563e-05
 Reference value :  4.72612e-05
 Reference value :  4.73031e-05
 Reference value :  4.75000e-05
 Reference value :  4.75001e-05
 Reference value :  4.75001e-05
 Reference value :  4.75003e-05
 Reference value :  4.75012e-05
 Reference value :  4.75021e-05
 Reference value :  4.75031e-05
 Reference value :  4.75042e-05
 Reference value :  4.75052e-05
 Reference value :  4.75073e-05
 Reference value :  4.75103e-05
 Reference value :  4.75134e-05
 Reference value :  4.75145e-05
 Reference value :  4.75165e-05
 Reference value :  4.75187e-05
 Reference value :  4.75244e-05
 Reference value :  4.75356e-05
 Reference value :  4.75476e-05
 Reference value :  4.75615e-05
 Reference value :  4.75747e-05
 Reference value :  4.75879e-05
 Reference value :  4.76194e-05
 Reference value :  4.77501e-05
 Reference value :  4.77502e-05
 Reference value :  4.77502e-05
 Reference value :  4.77504e-05
 Reference value :  4.77516e-05
 Reference value :  4.77532e-05
 Reference value :  4.77543e-05
 Reference value :  4.77565e-05
 Reference value :  4.77659e-05
 Reference value :  4.78659e-05
 Reference value :  4.80000e-05
 Reference value :  4.80001e-05
 Reference value :  4.80005e-05
 Reference value :  4.80012e-05
 Reference value :  4.80020e-05
 Reference value :  4.80030e-05
 Reference value :  4.80049e-05
 Reference value :  4.80062e-05
 Reference value :  4.80089e-05
 Reference value :  4.80122e-05
 Reference value :  4.80404e-05
 Reference value :  4.82501e-05
 Reference value :  4.82502e-05
 Reference value :  4.82503e-05
 Reference value :  4.82507e-05
 Reference value :  4.82520e-05
 Reference value :  4.82532e-05
 Reference value :  4.82544e-05
 Reference value :  4.82555e-05
 Reference value :  4.82562e-05
 Reference value :  4.82579e-05
 Reference value :  4.82604e-05
 Reference value :  4.82679e-05
[...]
 Reference value :  1.66502e-04
 Reference value :  1.66503e-04
 Reference value :  1.66504e-04
 Reference value :  1.66505e-04
 Reference value :  1.66506e-04
 Reference value :  1.66509e-04
 Reference value :  1.66512e-04
 Reference value :  1.66515e-04
 Reference value :  1.66517e-04
 Reference value :  1.66519e-04
 Reference value :  1.66524e-04
 Reference value :  1.66550e-04
 Reference value :  1.66575e-04
 Reference value :  1.66652e-04
 Reference value :  1.66750e-04
 Reference value :  1.66750e-04
 Reference value :  1.66750e-04
 Reference value :  1.66750e-04
 Reference value :  1.66752e-04
 Reference value :  1.66753e-04
 Reference value :  1.66754e-04
 Reference value :  1.66755e-04
 Reference value :  1.66758e-04
 Reference value :  1.66772e-04
 Reference value :  1.66970e-04
 Reference value :  1.67000e-04
 Reference value :  1.67000e-04
 Reference value :  1.67000e-04
 Reference value :  1.67001e-04
 Reference value :  1.67002e-04
 Reference value :  1.67003e-04
 Reference value :  1.67004e-04
 Reference value :  1.67006e-04
 Reference value :  1.67006e-04
 Reference value :  1.67008e-04
 Reference value :  1.67010e-04
 Reference value :  1.67014e-04
 Reference value :  1.67041e-04
 Reference value :  1.67250e-04
 Reference value :  1.67250e-04
 Reference value :  1.67250e-04
 Reference value :  1.67250e-04
 Reference value :  1.67252e-04
 Reference value :  1.67253e-04
 Reference value :  1.67254e-04
 Reference value :  1.67255e-04
 Reference value :  1.67257e-04
 Reference value :  1.67270e-04
 Reference value :  1.67436e-04
 Reference value :  1.67500e-04
 Reference value :  1.67500e-04
 Reference value :  1.67501e-04
 Reference value :  1.67502e-04
 Reference value :  1.67503e-04
 Reference value :  1.67504e-04
 Reference value :  1.67505e-04
 Reference value :  1.67507e-04
 Reference value :  1.67510e-04
 Reference value :  1.67513e-04
 Reference value :  1.67516e-04
 Reference value :  1.67518e-04
 Reference value :  1.67520e-04
 Reference value :  1.67529e-04
 Reference value :  1.67543e-04
 Reference value :  1.67556e-04
 Reference value :  1.67568e-04
 Reference value :  1.67584e-04
 Reference value :  1.67662e-04
 Reference value :  1.67750e-04
 Reference value :  1.67750e-04
 Reference value :  1.67751e-04
 Reference value :  1.67752e-04
 Reference value :  1.67754e-04
 Reference value :  1.67756e-04
 Reference value :  1.67763e-04
 Reference value :  1.67812e-04
 Reference value :  1.68000e-04
 Reference value :  1.68000e-04
 Reference value :  1.68000e-04
 Reference value :  1.68001e-04
 Reference value :  1.68002e-04
 Reference value :  1.68003e-04
 Reference value :  1.68005e-04
 Reference value :  1.68006e-04
 Reference value :  1.68008e-04
 Reference value :  1.68011e-04
 Reference value :  1.68026e-04
 Reference value :  1.68250e-04
 Reference value :  1.68250e-04
 Reference value :  1.68250e-04
 Reference value :  1.68252e-04
 Reference value :  1.68254e-04
 Reference value :  1.68255e-04
 Reference value :  1.68257e-04
 Reference value :  1.68262e-04
 Reference value :  1.68302e-04
 Reference value :  1.68500e-04
 Reference value :  1.68500e-04
 Reference value :  1.68500e-04
 Reference value :  1.68500e-04
 Reference value :  1.68501e-04
 Reference value :  1.68502e-04
 Reference value :  1.68503e-04
 Reference value :  1.68503e-04
 Reference value :  1.68504e-04
 Reference value :  1.68505e-04
 Reference value :  1.68506e-04
 Reference value :  1.68508e-04
 Reference value :  1.68510e-04
 Reference value :  1.68512e-04
 Reference value :  1.68514e-04
 Reference value :  1.68515e-04
 Reference value :  1.68518e-04
 Reference value :  1.68523e-04
 Reference value :  1.68550e-04
 Reference value :  1.68750e-04
 Reference value :  1.68750e-04
 Reference value :  1.68750e-04
 Reference value :  1.68751e-04
 Reference value :  1.68752e-04
 Reference value :  1.68753e-04
 Reference value :  1.68754e-04
 Reference value :  1.68755e-04
 Reference value :  1.68758e-04
 Reference value :  1.68772e-04
 Reference value :  1.68964e-04
 Reference value :  1.69000e-04
 Reference value :  1.69000e-04
 Reference value :  1.69001e-04
 Reference value :  1.69001e-04
 Reference value :  1.69002e-04
 Reference value :  1.69004e-04
 Reference value :  1.69006e-04
 Reference value :  1.69006e-04
 Reference value :  1.69008e-04
 Reference value :  1.69010e-04
 Reference value :  1.69015e-04
 Reference value :  1.69040e-04
 Reference value :  1.69240e-04
 Reference value :  1.69250e-04
 Reference value :  1.69250e-04
 Reference value :  1.69251e-04
 Reference value :  1.69252e-04
 Reference value :  1.69254e-04
 Reference value :  1.69255e-04
 Reference value :  1.69256e-04
 Reference value :  1.69259e-04
 Reference value :  1.69268e-04
 Reference value :  1.69335e-04
 Reference value :  1.69500e-04
 Reference value :  1.69500e-04
 Reference value :  1.69500e-04
 Reference value :  1.69501e-04
 Reference value :  1.69501e-04
 Reference value :  1.69503e-04
 Reference value :  1.69504e-04
 Reference value :  1.69505e-04
 Reference value :  1.69506e-04
 Reference value :  1.69508e-04
 Reference value :  1.69509e-04
 Reference value :  1.69512e-04
 Reference value :  1.69517e-04
 Reference value :  1.69529e-04
 Reference value :  1.69539e-04
 Reference value :  1.69559e-04
 Reference value :  1.69750e-04
 Reference value :  1.69750e-04
 Reference value :  1.69750e-04
 Reference value :  1.69751e-04
 Reference value :  1.69753e-04
 Reference value :  1.69756e-04
 Reference value :  1.69763e-04
 Reference value :  1.69999e-04
 Reference value :  1.70000e-04
 Reference value :  1.70000e-04
 Reference value :  1.70000e-04
 Reference value :  1.70000e-04
 Reference value :  1.70001e-04
 Reference value :  1.70002e-04
 Reference value :  1.70003e-04
 Reference value :  1.70004e-04
 Reference value :  1.70005e-04
 Reference value :  1.70008e-04
 Reference value :  1.70023e-04
 Reference value :  1.70029e-04
 Reference value :  1.70037e-04
 Reference value :  1.70041e-04
 Reference value :  1.70048e-04
 Reference value :  1.70060e-04
 Reference value :  1.70083e-04
 Reference value :  1.70131e-04
 Reference value :  1.70212e-04
 Reference value :  1.70227e-04
 Reference value :  1.70250e-04
 Reference value :  1.70250e-04
 Reference value :  1.70250e-04
 Reference value :  1.70251e-04
 Reference value :  1.70252e-04
 Reference value :  1.70253e-04
 Reference value :  1.70254e-04
 Reference value :  1.70256e-04
 Reference value :  1.70258e-04
 Reference value :  1.70266e-04
 Reference value :  1.70313e-04
 Reference value :  1.70500e-04
 Reference value :  1.70500e-04
 Reference value :  1.70500e-04
 Reference value :  1.70500e-04
 Reference value :  1.70501e-04
 Reference value :  1.70502e-04
 Reference value :  1.70504e-04
 Reference value :  1.70507e-04
 Reference value :  1.70510e-04
 Reference value :  1.70513e-04
 Reference value :  1.70518e-04
 Reference value :  1.70533e-04
 Reference value :  1.70619e-04
 Reference value :  1.70750e-04
 Reference value :  1.70750e-04
 Reference value :  1.70750e-04
 Reference value :  1.70750e-04
 Reference value :  1.70751e-04
 Reference value :  1.70752e-04
 Reference value :  1.70753e-04
 Reference value :  1.70754e-04
 Reference value :  1.70755e-04
 Reference value :  1.70756e-04
 Reference value :  1.70757e-04
 Reference value :  1.70758e-04
 Reference value :  1.70761e-04
 Reference value :  1.70769e-04
 Reference value :  1.70796e-04
 Reference value :  1.70883e-04
 Reference value :  1.71000e-04
 Reference value :  1.71000e-04
 Reference value :  1.71000e-04
 Reference value :  1.71000e-04
 Reference value :  1.71001e-04
 Reference value :  1.71001e-04
 Reference value :  1.71002e-04
 Reference value :  1.71003e-04
 Reference value :  1.71005e-04
 Reference value :  1.71007e-04
 Reference value :  1.71010e-04
 Reference value :  1.71012e-04
 Reference value :  1.71014e-04
 Reference value :  1.71016e-04
 Reference value :  1.71021e-04
 Reference value :  1.71041e-04
 Reference value :  1.71250e-04
 Reference value :  1.71250e-04
 Reference value :  1.71250e-04
 Reference value :  1.71252e-04
 Reference value :  1.71253e-04
 Reference value :  1.71254e-04
 Reference value :  1.71256e-04
 Reference value :  1.71266e-04
 Reference value :  1.71362e-04
 Reference value :  1.71500e-04
 Reference value :  1.71500e-04
 Reference value :  1.71500e-04
 Reference value :  1.71501e-04
 Reference value :  1.71502e-04
 Reference value :  1.71504e-04
 Reference value :  1.71506e-04
 Reference value :  1.71506e-04
 Reference value :  1.71508e-04
 Reference value :  1.71509e-04
 Reference value :  1.71511e-04
 Reference value :  1.71519e-04
 Reference value :  1.71541e-04
 Reference value :  1.71626e-04
 Reference value :  1.71750e-04
 Reference value :  1.71750e-04
 Reference value :  1.71750e-04
 Reference value :  1.71750e-04
 Reference value :  1.71751e-04
 Reference value :  1.71752e-04
 Reference value :  1.71753e-04
 Reference value :  1.71754e-04
 Reference value :  1.71755e-04
 Reference value :  1.71756e-04
 Reference value :  1.71758e-04
 Reference value :  1.71760e-04
 Reference value :  1.71765e-04
 Reference value :  1.71774e-04
 Reference value :  1.71836e-04
 Reference value :  1.72000e-04
 Reference value :  1.72000e-04
 Reference value :  1.72000e-04
 Reference value :  1.72000e-04
 Reference value :  1.72001e-04
 Reference value :  1.72002e-04
 Reference value :  1.72003e-04
 Reference value :  1.72004e-04
 Reference value :  1.72005e-04
 Reference value :  1.72006e-04
 Reference value :  1.72008e-04
 Reference value :  1.72010e-04
 Reference value :  1.72012e-04
 Reference value :  1.72014e-04
 Reference value :  1.72015e-04
 Reference value :  1.72017e-04
 Reference value :  1.72018e-04
 Reference value :  1.72023e-04
 Reference value :  1.72040e-04
 Reference value :  1.72114e-04
 Reference value :  1.72143e-04
 Reference value :  1.72192e-04
 Reference value :  1.72211e-04
 Reference value :  1.72250e-04
 Reference value :  1.72250e-04
 Reference value :  1.72250e-04
 Reference value :  1.72252e-04
 Reference value :  1.72253e-04
 Reference value :  1.72254e-04
 Reference value :  1.72256e-04
 Reference value :  1.72266e-04
 Reference value :  1.72364e-04
 Reference value :  1.72500e-04
 Reference value :  1.72500e-04
 Reference value :  1.72501e-04
 Reference value :  1.72502e-04
 Reference value :  1.72504e-04
 Reference value :  1.72506e-04
 Reference value :  1.72507e-04
 Reference value :  1.72509e-04
 Reference value :  1.72511e-04
 Reference value :  1.72526e-04
 Reference value :  1.72750e-04
 Reference value :  1.72750e-04
 Reference value :  1.72750e-04
 Reference value :  1.72750e-04
 Reference value :  1.72751e-04
 Reference value :  1.72752e-04
 Reference value :  1.72753e-04
 Reference value :  1.72754e-04
 Reference value :  1.72755e-04
 Reference value :  1.72756e-04
 Reference value :  1.72764e-04
 Reference value :  1.72803e-04
 Reference value :  1.73000e-04
 Reference value :  1.73000e-04
 Reference value :  1.73000e-04
 Reference value :  1.73000e-04
 Reference value :  1.73001e-04
 Reference value :  1.73002e-04
 Reference value :  1.73003e-04
 Reference value :  1.73005e-04
 Reference value :  1.73006e-04
 Reference value :  1.73009e-04
 Reference value :  1.73012e-04
 Reference value :  1.73015e-04
 Reference value :  1.73016e-04
 Reference value :  1.73019e-04
 Reference value :  1.73024e-04
 Reference value :  1.73048e-04
 Reference value :  1.73065e-04
 Reference value :  1.73082e-04
 Reference value :  1.73106e-04
 Reference value :  1.73222e-04
 Reference value :  1.73250e-04
 Reference value :  1.73250e-04
 Reference value :  1.73251e-04
 Reference value :  1.73253e-04
 Reference value :  1.73254e-04
 Reference value :  1.73256e-04
 Reference value :  1.73266e-04
 Reference value :  1.73366e-04
 Reference value :  1.73500e-04
 Reference value :  1.73500e-04
 Reference value :  1.73500e-04
 Reference value :  1.73501e-04
 Reference value :  1.73502e-04
 Reference value :  1.73503e-04
 Reference value :  1.73504e-04
 Reference value :  1.73506e-04
 Reference value :  1.73509e-04
 Reference value :  1.73512e-04
 Reference value :  1.73540e-04
 Reference value :  1.73750e-04
 Reference value :  1.73750e-04
 Reference value :  1.73750e-04
 Reference value :  1.73752e-04
 Reference value :  1.73754e-04
 Reference value :  1.73755e-04
 Reference value :  1.73756e-04
 Reference value :  1.73759e-04
 Reference value :  1.73765e-04
 Reference value :  1.73784e-04
 Reference value :  1.74000e-04
 Reference value :  1.74000e-04
 Reference value :  1.74000e-04
 Reference value :  1.74001e-04
 Reference value :  1.74001e-04
 Reference value :  1.74002e-04
 Reference value :  1.74003e-04
 Reference value :  1.74005e-04
 Reference value :  1.74006e-04
 Reference value :  1.74008e-04
 Reference value :  1.74010e-04
 Reference value :  1.74012e-04
 Reference value :  1.74014e-04
 Reference value :  1.74015e-04
 Reference value :  1.74018e-04
 Reference value :  1.74026e-04
 Reference value :  1.74045e-04
 Reference value :  1.74052e-04
 Reference value :  1.74060e-04
 Reference value :  1.74078e-04
 Reference value :  1.74105e-04
 Reference value :  1.74185e-04
 Reference value :  1.74250e-04
 Reference value :  1.74250e-04
 Reference value :  1.74250e-04
 Reference value :  1.74251e-04
 Reference value :  1.74252e-04
 Reference value :  1.74253e-04
 Reference value :  1.74255e-04
 Reference value :  1.74260e-04
 Reference value :  1.74285e-04
 Reference value :  1.74500e-04
 Reference value :  1.74500e-04
 Reference value :  1.74500e-04
 Reference value :  1.74501e-04
 Reference value :  1.74502e-04
 Reference value :  1.74503e-04
 Reference value :  1.74506e-04
 Reference value :  1.74507e-04
 Reference value :  1.74509e-04
 Reference value :  1.74512e-04
 Reference value :  1.74572e-04
 Reference value :  1.74750e-04
 Reference value :  1.74750e-04
 Reference value :  1.74750e-04
 Reference value :  1.74752e-04
 Reference value :  1.74753e-04
 Reference value :  1.74754e-04
 Reference value :  1.74755e-04
 Reference value :  1.74756e-04
 Reference value :  1.74764e-04
 Reference value :  1.74847e-04
 Reference value :  1.75000e-04
 Reference value :  1.75000e-04
 Reference value :  1.75000e-04
 Reference value :  1.75001e-04
 Reference value :  1.75001e-04
 Reference value :  1.75002e-04
 Reference value :  1.75003e-04
 Reference value :  1.75004e-04
 Reference value :  1.75005e-04
 Reference value :  1.75006e-04
 Reference value :  1.75009e-04
 Reference value :  1.75010e-04
 Reference value :  1.75013e-04
 Reference value :  1.75015e-04
 Reference value :  1.75017e-04
 Reference value :  1.75019e-04
 Reference value :  1.75024e-04
 Reference value :  1.75050e-04
 Reference value :  1.75076e-04
 Reference value :  1.75246e-04
 Reference value :  1.75250e-04
 Reference value :  1.75250e-04
 Reference value :  1.75250e-04
 Reference value :  1.75251e-04
 Reference value :  1.75252e-04
 Reference value :  1.75253e-04
 Reference value :  1.75254e-04
 Reference value :  1.75256e-04
 Reference value :  1.75260e-04
 Reference value :  1.75286e-04
 Reference value :  1.75500e-04
 Reference value :  1.75500e-04
 Reference value :  1.75500e-04
 Reference value :  1.75500e-04
 Reference value :  1.75501e-04
 Reference value :  1.75502e-04
 Reference value :  1.75503e-04
 Reference value :  1.75504e-04
 Reference value :  1.75506e-04
 Reference value :  1.75506e-04
 Reference value :  1.75508e-04
 Reference value :  1.75511e-04
 Reference value :  1.75541e-04
 Reference value :  1.75750e-04
 Reference value :  1.75750e-04
 Reference value :  1.75750e-04
 Reference value :  1.75752e-04
 Reference value :  1.75753e-04
 Reference value :  1.75754e-04
 Reference value :  1.75755e-04
 Reference value :  1.75756e-04
 Reference value :  1.75770e-04
 Reference value :  1.75936e-04
 Reference value :  1.76000e-04
 Reference value :  1.76000e-04
 Reference value :  1.76001e-04
 Reference value :  1.76002e-04
 Reference value :  1.76004e-04
 Reference value :  1.76005e-04
 Reference value :  1.76006e-04
 Reference value :  1.76009e-04
 Reference value :  1.76010e-04
 Reference value :  1.76015e-04
 Reference value :  1.76017e-04
 Reference value :  1.76019e-04
 Reference value :  1.76037e-04
 Reference value :  1.76067e-04
 Reference value :  1.76090e-04
 Reference value :  1.76127e-04
 Reference value :  1.76208e-04
 Reference value :  1.76250e-04
 Reference value :  1.76250e-04
 Reference value :  1.76251e-04
 Reference value :  1.76252e-04
 Reference value :  1.76253e-04
 Reference value :  1.76254e-04
 Reference value :  1.76256e-04
 Reference value :  1.76260e-04
 Reference value :  1.76273e-04
 Reference value :  1.76366e-04
 Reference value :  1.76500e-04
 Reference value :  1.76500e-04
 Reference value :  1.76500e-04
 Reference value :  1.76501e-04
 Reference value :  1.76501e-04
 Reference value :  1.76502e-04
 Reference value :  1.76503e-04
 Reference value :  1.76504e-04
 Reference value :  1.76505e-04
 Reference value :  1.76506e-04
 Reference value :  1.76508e-04
 Reference value :  1.76511e-04
 Reference value :  1.76526e-04
 Reference value :  1.76739e-04
 Reference value :  1.76750e-04
 Reference value :  1.76750e-04
 Reference value :  1.76751e-04
 Reference value :  1.76752e-04
 Reference value :  1.76754e-04
 Reference value :  1.76755e-04
 Reference value :  1.76757e-04
 Reference value :  1.76760e-04
 Reference value :  1.76774e-04
 Reference value :  1.76905e-04
 Reference value :  1.77000e-04
 Reference value :  1.77000e-04
 Reference value :  1.77001e-04
 Reference value :  1.77001e-04
 Reference value :  1.77002e-04
 Reference value :  1.77003e-04
 Reference value :  1.77005e-04
 Reference value :  1.77007e-04
 Reference value :  1.77010e-04
 Reference value :  1.77012e-04
 Reference value :  1.77014e-04
 Reference value :  1.77015e-04
 Reference value :  1.77018e-04
 Reference value :  1.77027e-04
 Reference value :  1.77069e-04
 Reference value :  1.77227e-04
 Reference value :  1.77250e-04
 Reference value :  1.77250e-04
 Reference value :  1.77250e-04
 Reference value :  1.77251e-04
 Reference value :  1.77252e-04
 Reference value :  1.77253e-04
 Reference value :  1.77254e-04
 Reference value :  1.77256e-04
 Reference value :  1.77258e-04
 Reference value :  1.77266e-04
 Reference value :  1.77280e-04
 Reference value :  1.77338e-04
 Reference value :  1.77500e-04
 Reference value :  1.77500e-04
 Reference value :  1.77500e-04
 Reference value :  1.77500e-04
 Reference value :  1.77501e-04
 Reference value :  1.77501e-04
 Reference value :  1.77502e-04
 Reference value :  1.77503e-04
 Reference value :  1.77504e-04
 Reference value :  1.77506e-04
 Reference value :  1.77506e-04
 Reference value :  1.77508e-04
 Reference value :  1.77510e-04
 Reference value :  1.77512e-04
 Reference value :  1.77526e-04
 Reference value :  1.77632e-04
 Reference value :  1.77750e-04
 Reference value :  1.77750e-04
 Reference value :  1.77750e-04
 Reference value :  1.77751e-04
 Reference value :  1.77752e-04
 Reference value :  1.77753e-04
 Reference value :  1.77754e-04
 Reference value :  1.77755e-04
 Reference value :  1.77756e-04
 Reference value :  1.77761e-04
 Reference value :  1.77781e-04
 Reference value :  1.78000e-04
 Reference value :  1.78000e-04
 Reference value :  1.78000e-04
 Reference value :  1.78000e-04
 Reference value :  1.78001e-04
 Reference value :  1.78002e-04
 Reference value :  1.78003e-04
 Reference value :  1.78005e-04
 Reference value :  1.78006e-04
 Reference value :  1.78008e-04
 Reference value :  1.78010e-04
 Reference value :  1.78026e-04
 Reference value :  1.78250e-04
 Reference value :  1.78250e-04
 Reference value :  1.78250e-04
 Reference value :  1.78251e-04
 Reference value :  1.78252e-04
 Reference value :  1.78253e-04
 Reference value :  1.78255e-04
 Reference value :  1.78258e-04
 Reference value :  1.78274e-04
 Reference value :  1.78498e-04
No. of Data Rows : 26025
ngspice-44 done
