
Note: Compatibility modes selected: hs a


Circuit: ** sch_path: /home/samantha/cace/sar-adc-using-sky130-pdk/runs/run_2025-09-05_12-09-37/parameters/power/run_05/power_consumption.sch

option SCALE: Scale is set to 1e-06 for instance and model parameters
option SCALE: Scale is set to 1e-06 for instance and model parameters
option SCALE: Scale is set to 1e-06 for instance and model parameters
option SCALE: Scale is set to 1e-06 for instance and model parameters
Doing analysis at TEMP = 27.000000 and TNOM = 27.000000

Using KLU as Direct Linear Solver
 Reference value :  0.00000e+00
 Reference value :  2.00000e-12
 Reference value :  8.00000e-12
 Reference value :  1.60000e-11
 Reference value :  3.20000e-11
 Reference value :  6.40000e-11
 Reference value :  1.00000e-10
 Reference value :  1.06400e-10
 Reference value :  1.19200e-10
 Reference value :  1.44800e-10
 Reference value :  1.96000e-10
 Reference value :  2.98400e-10
 Reference value :  4.46651e-10
 Reference value :  7.06787e-10
 Reference value :  1.00567e-09
 Reference value :  1.38394e-09
 Reference value :  1.76318e-09
 Reference value :  2.17229e-09
 Reference value :  2.51397e-09
 Reference value :  2.90772e-09
 Reference value :  3.32440e-09
 Reference value :  3.73289e-09
 Reference value :  4.18544e-09
 Reference value :  4.69869e-09
 Reference value :  5.33724e-09
 Reference value :  5.99876e-09
 Reference value :  6.71421e-09
 Reference value :  8.33217e-09
 Reference value :  9.32124e-09
 Reference value :  1.03352e-08
 Reference value :  1.10550e-08
 Reference value :  1.17195e-08
 Reference value :  1.24104e-08
 Reference value :  1.40701e-08
 Reference value :  1.52801e-08
 Reference value :  1.70031e-08
 Reference value :  1.90301e-08
 Reference value :  2.10363e-08
 Reference value :  2.23694e-08
 Reference value :  2.36437e-08
 Reference value :  2.44929e-08
 Reference value :  2.55941e-08
 Reference value :  2.95001e-08
 Reference value :  3.22874e-08
 Reference value :  3.53248e-08
 Reference value :  4.27893e-08
 Reference value :  5.49278e-08
 Reference value :  8.83435e-08
 Reference value :  1.25462e-07
 Reference value :  1.66501e-07
 Reference value :  2.08658e-07
 Reference value :  2.38253e-07
 Reference value :  2.50100e-07
 Reference value :  2.50110e-07
 Reference value :  2.50170e-07
 Reference value :  2.50207e-07
 Reference value :  2.50246e-07
 Reference value :  2.50384e-07
 Reference value :  2.50522e-07
 Reference value :  2.50668e-07
 Reference value :  2.50926e-07
 Reference value :  2.51642e-07
 Reference value :  2.52048e-07
 Reference value :  2.52612e-07
 Reference value :  2.53250e-07
 Reference value :  2.53780e-07
 Reference value :  2.54330e-07
 Reference value :  2.54915e-07
 Reference value :  2.55562e-07
 Reference value :  2.57814e-07
 Reference value :  2.61848e-07
 Reference value :  2.72249e-07
 Reference value :  3.06916e-07
 Reference value :  4.35904e-07
 Reference value :  5.00010e-07
 Reference value :  5.00030e-07
 Reference value :  5.00070e-07
 Reference value :  5.00100e-07
 Reference value :  5.00124e-07
 Reference value :  5.00156e-07
 Reference value :  5.00219e-07
 Reference value :  5.00513e-07
 Reference value :  5.00822e-07
 Reference value :  5.01183e-07
 Reference value :  5.01527e-07
 Reference value :  5.01933e-07
 Reference value :  5.02329e-07
 Reference value :  5.02810e-07
 Reference value :  5.03331e-07
 Reference value :  5.03889e-07
 Reference value :  5.04622e-07
 Reference value :  5.05352e-07
 Reference value :  5.06386e-07
 Reference value :  5.07520e-07
 Reference value :  5.08627e-07
 Reference value :  5.09710e-07
 Reference value :  5.11153e-07
 Reference value :  5.12667e-07
 Reference value :  5.14059e-07
 Reference value :  5.15869e-07
 Reference value :  5.17830e-07
 Reference value :  5.26634e-07
 Reference value :  5.51392e-07
 Reference value :  5.84401e-07
 Reference value :  7.50100e-07
 Reference value :  7.50110e-07
 Reference value :  7.50130e-07
 Reference value :  7.50170e-07
 Reference value :  7.50200e-07
 Reference value :  7.50224e-07
 Reference value :  7.50256e-07
 Reference value :  7.50320e-07
 Reference value :  7.50448e-07
 Reference value :  7.50584e-07
 Reference value :  7.50819e-07
 Reference value :  7.51288e-07
 Reference value :  7.51723e-07
 Reference value :  7.52148e-07
 Reference value :  7.52768e-07
 Reference value :  7.53304e-07
 Reference value :  7.53897e-07
 Reference value :  7.54503e-07
 Reference value :  7.55052e-07
 Reference value :  7.55748e-07
 Reference value :  7.56521e-07
 Reference value :  7.57384e-07
 Reference value :  7.58179e-07
 Reference value :  7.59512e-07
 Reference value :  7.60934e-07
 Reference value :  7.63520e-07
 Reference value :  7.66878e-07
 Reference value :  7.73594e-07
 Reference value :  7.87027e-07
 Reference value :  8.13892e-07
 Reference value :  9.75081e-07
 Reference value :  1.00001e-06
 Reference value :  1.00003e-06
 Reference value :  1.00010e-06
 Reference value :  1.00012e-06
 Reference value :  1.00022e-06
 Reference value :  1.00034e-06
 Reference value :  1.00082e-06
 Reference value :  1.00158e-06
 Reference value :  1.00242e-06
 Reference value :  1.00290e-06
 Reference value :  1.00342e-06
 Reference value :  1.00389e-06
 Reference value :  1.00439e-06
 Reference value :  1.00482e-06
 Reference value :  1.00532e-06
 Reference value :  1.00596e-06
 Reference value :  1.00664e-06
 Reference value :  1.00765e-06
 Reference value :  1.00846e-06
 Reference value :  1.00931e-06
 Reference value :  1.01016e-06
 Reference value :  1.01111e-06
 Reference value :  1.01188e-06
 Reference value :  1.01266e-06
 Reference value :  1.01349e-06
 Reference value :  1.01436e-06
 Reference value :  1.01523e-06
 Reference value :  1.01617e-06
 Reference value :  1.01713e-06
 Reference value :  1.01865e-06
 Reference value :  1.02028e-06
 Reference value :  1.02328e-06
 Reference value :  1.02840e-06
 Reference value :  1.03594e-06
 Reference value :  1.07776e-06
 Reference value :  1.12726e-06
 Reference value :  1.18192e-06
 Reference value :  1.23128e-06
 Reference value :  1.25010e-06
 Reference value :  1.25011e-06
 Reference value :  1.25013e-06
 Reference value :  1.25017e-06
 Reference value :  1.25020e-06
 Reference value :  1.25022e-06
 Reference value :  1.25032e-06
 Reference value :  1.25045e-06
 Reference value :  1.25058e-06
 Reference value :  1.25082e-06
 Reference value :  1.25129e-06
 Reference value :  1.25172e-06
 Reference value :  1.25215e-06
 Reference value :  1.25277e-06
 Reference value :  1.25333e-06
 Reference value :  1.25393e-06
 Reference value :  1.25454e-06
 Reference value :  1.25513e-06
 Reference value :  1.25606e-06
 Reference value :  1.25715e-06
 Reference value :  1.26108e-06
 Reference value :  1.26502e-06
 Reference value :  1.27166e-06
 Reference value :  1.30240e-06
 Reference value :  1.42538e-06
 Reference value :  1.50000e-06
 Reference value :  1.50001e-06
 Reference value :  1.50003e-06
 Reference value :  1.50007e-06
 Reference value :  1.50010e-06
 Reference value :  1.50012e-06
 Reference value :  1.50016e-06
 Reference value :  1.50022e-06
 Reference value :  1.50034e-06
 Reference value :  1.50051e-06
 Reference value :  1.50082e-06
 Reference value :  1.50118e-06
 Reference value :  1.50158e-06
 Reference value :  1.50202e-06
 Reference value :  1.50242e-06
 Reference value :  1.50290e-06
 Reference value :  1.50342e-06
 Reference value :  1.50399e-06
 Reference value :  1.50474e-06
 Reference value :  1.50554e-06
 Reference value :  1.50619e-06
 Reference value :  1.50692e-06
 Reference value :  1.50765e-06
 Reference value :  1.50848e-06
 Reference value :  1.50942e-06
 Reference value :  1.51047e-06
 Reference value :  1.51255e-06
 Reference value :  1.52296e-06
 Reference value :  1.53608e-06
 Reference value :  1.60747e-06
 Reference value :  1.70265e-06
 Reference value :  1.75010e-06
 Reference value :  1.75011e-06
 Reference value :  1.75013e-06
 Reference value :  1.75017e-06
 Reference value :  1.75020e-06
 Reference value :  1.75021e-06
 Reference value :  1.75022e-06
 Reference value :  1.75026e-06
 Reference value :  1.75032e-06
 Reference value :  1.75045e-06
 Reference value :  1.75058e-06
 Reference value :  1.75082e-06
 Reference value :  1.75129e-06
 Reference value :  1.75172e-06
 Reference value :  1.75215e-06
 Reference value :  1.75277e-06
 Reference value :  1.75331e-06
 Reference value :  1.75390e-06
 Reference value :  1.75445e-06
 Reference value :  1.75501e-06
 Reference value :  1.75571e-06
 Reference value :  1.75804e-06
 Reference value :  1.76315e-06
 Reference value :  1.77937e-06
 Reference value :  1.84427e-06
 Reference value :  2.00000e-06
 Reference value :  2.00003e-06
 Reference value :  2.00007e-06
 Reference value :  2.00010e-06
 Reference value :  2.00011e-06
 Reference value :  2.00012e-06
 Reference value :  2.00016e-06
 Reference value :  2.00022e-06
 Reference value :  2.00051e-06
 Reference value :  2.00082e-06
 Reference value :  2.00118e-06
 Reference value :  2.00158e-06
 Reference value :  2.00201e-06
 Reference value :  2.00242e-06
 Reference value :  2.00289e-06
 Reference value :  2.00342e-06
 Reference value :  2.00396e-06
 Reference value :  2.00450e-06
 Reference value :  2.00500e-06
 Reference value :  2.00555e-06
 Reference value :  2.00715e-06
 Reference value :  2.00863e-06
 Reference value :  2.01002e-06
 Reference value :  2.01122e-06
 Reference value :  2.01220e-06
 Reference value :  2.01419e-06
 Reference value :  2.01513e-06
 Reference value :  2.01611e-06
 Reference value :  2.01721e-06
 Reference value :  2.01875e-06
 Reference value :  2.02037e-06
 Reference value :  2.02318e-06
 Reference value :  2.03247e-06
 Reference value :  2.03597e-06
 Reference value :  2.03960e-06
 Reference value :  2.04278e-06
 Reference value :  2.04628e-06
 Reference value :  2.04904e-06
 Reference value :  2.05205e-06
 Reference value :  2.05626e-06
 Reference value :  2.06680e-06
 Reference value :  2.07960e-06
 Reference value :  2.09962e-06
 Reference value :  2.14751e-06
 Reference value :  2.25010e-06
 Reference value :  2.25011e-06
 Reference value :  2.25013e-06
 Reference value :  2.25017e-06
 Reference value :  2.25020e-06
 Reference value :  2.25021e-06
 Reference value :  2.25026e-06
 Reference value :  2.25032e-06
 Reference value :  2.25045e-06
 Reference value :  2.25058e-06
 Reference value :  2.25082e-06
 Reference value :  2.25129e-06
 Reference value :  2.25172e-06
 Reference value :  2.25215e-06
 Reference value :  2.25277e-06
 Reference value :  2.25327e-06
 Reference value :  2.25436e-06
 Reference value :  2.25578e-06
 Reference value :  2.25824e-06
 Reference value :  2.26355e-06
 Reference value :  2.26990e-06
 Reference value :  2.30703e-06
 Reference value :  2.45555e-06
 Reference value :  2.50001e-06
 Reference value :  2.50007e-06
 Reference value :  2.50010e-06
 Reference value :  2.50012e-06
 Reference value :  2.50016e-06
 Reference value :  2.50022e-06
 Reference value :  2.50034e-06
 Reference value :  2.50051e-06
 Reference value :  2.50082e-06
 Reference value :  2.50118e-06
 Reference value :  2.50154e-06
 Reference value :  2.50195e-06
 Reference value :  2.50235e-06
 Reference value :  2.50282e-06
 Reference value :  2.50333e-06
 Reference value :  2.50389e-06
 Reference value :  2.50465e-06
 Reference value :  2.50537e-06
 Reference value :  2.50595e-06
 Reference value :  2.50665e-06
 Reference value :  2.50740e-06
 Reference value :  2.50822e-06
 Reference value :  2.50922e-06
 Reference value :  2.51230e-06
 Reference value :  2.52414e-06
 Reference value :  2.53960e-06
 Reference value :  2.63236e-06
 Reference value :  2.75011e-06
 Reference value :  2.75013e-06
 Reference value :  2.75017e-06
 Reference value :  2.75020e-06
 Reference value :  2.75022e-06
 Reference value :  2.75032e-06
 Reference value :  2.75058e-06
 Reference value :  2.75129e-06
 Reference value :  2.75215e-06
 Reference value :  2.75277e-06
 Reference value :  2.75330e-06
 Reference value :  2.75389e-06
 Reference value :  2.75450e-06
 Reference value :  2.75505e-06
 Reference value :  2.75575e-06
 Reference value :  2.75653e-06
 Reference value :  2.75737e-06
 Reference value :  2.75818e-06
 Reference value :  2.75950e-06
 Reference value :  2.76091e-06
 Reference value :  2.76683e-06
 Reference value :  2.78682e-06
 Reference value :  2.81347e-06
 Reference value :  2.86677e-06
 Reference value :  3.00000e-06
 Reference value :  3.00001e-06
 Reference value :  3.00003e-06
 Reference value :  3.00007e-06
 Reference value :  3.00010e-06
 Reference value :  3.00011e-06
 Reference value :  3.00016e-06
 Reference value :  3.00034e-06
 Reference value :  3.00082e-06
 Reference value :  3.00118e-06
 Reference value :  3.00158e-06
 Reference value :  3.00201e-06
 Reference value :  3.00242e-06
 Reference value :  3.00290e-06
 Reference value :  3.00342e-06
 Reference value :  3.00390e-06
 Reference value :  3.00440e-06
 Reference value :  3.00483e-06
 Reference value :  3.00533e-06
 Reference value :  3.00596e-06
 Reference value :  3.00665e-06
 Reference value :  3.00766e-06
 Reference value :  3.00847e-06
 Reference value :  3.00932e-06
 Reference value :  3.01016e-06
 Reference value :  3.01111e-06
 Reference value :  3.01188e-06
 Reference value :  3.01265e-06
 Reference value :  3.01348e-06
 Reference value :  3.01435e-06
 Reference value :  3.01615e-06
 Reference value :  3.01861e-06
 Reference value :  3.02314e-06
 Reference value :  3.03542e-06
 Reference value :  3.06562e-06
 Reference value :  3.14553e-06
 Reference value :  3.23009e-06
 Reference value :  3.25011e-06
 Reference value :  3.25017e-06
 Reference value :  3.25021e-06
 Reference value :  3.25022e-06
 Reference value :  3.25032e-06
 Reference value :  3.25058e-06
 Reference value :  3.25129e-06
 Reference value :  3.25215e-06
 Reference value :  3.25277e-06
 Reference value :  3.25331e-06
 Reference value :  3.25450e-06
 Reference value :  3.25508e-06
 Reference value :  3.25599e-06
 Reference value :  3.25862e-06
 Reference value :  3.26463e-06
 Reference value :  3.28550e-06
 Reference value :  3.36642e-06
 Reference value :  3.50000e-06
 Reference value :  3.50003e-06
 Reference value :  3.50007e-06
 Reference value :  3.50011e-06
 Reference value :  3.50016e-06
 Reference value :  3.50022e-06
 Reference value :  3.50051e-06
 Reference value :  3.50082e-06
 Reference value :  3.50118e-06
 Reference value :  3.50154e-06
 Reference value :  3.50195e-06
 Reference value :  3.50235e-06
 Reference value :  3.50282e-06
 Reference value :  3.50333e-06
 Reference value :  3.50389e-06
 Reference value :  3.50464e-06
 Reference value :  3.50537e-06
 Reference value :  3.50595e-06
 Reference value :  3.50665e-06
 Reference value :  3.50740e-06
 Reference value :  3.50823e-06
 Reference value :  3.50922e-06
 Reference value :  3.51025e-06
 Reference value :  3.51642e-06
 Reference value :  3.53957e-06
 Reference value :  3.63214e-06
 Reference value :  3.75010e-06
 Reference value :  3.75011e-06
 Reference value :  3.75013e-06
 Reference value :  3.75017e-06
 Reference value :  3.75020e-06
 Reference value :  3.75022e-06
 Reference value :  3.75032e-06
 Reference value :  3.75058e-06
 Reference value :  3.75082e-06
 Reference value :  3.75129e-06
 Reference value :  3.75172e-06
 Reference value :  3.75215e-06
 Reference value :  3.75277e-06
 Reference value :  3.75330e-06
 Reference value :  3.75389e-06
 Reference value :  3.75444e-06
 Reference value :  3.75500e-06
 Reference value :  3.75570e-06
 Reference value :  3.75648e-06
 Reference value :  3.75728e-06
 Reference value :  3.75810e-06
 Reference value :  3.76090e-06
 Reference value :  3.76353e-06
 Reference value :  3.76662e-06
 Reference value :  3.78515e-06
 Reference value :  3.85926e-06
 Reference value :  3.95808e-06
 Reference value :  4.00000e-06
 Reference value :  4.00003e-06
 Reference value :  4.00007e-06
 Reference value :  4.00010e-06
 Reference value :  4.00012e-06
 Reference value :  4.00016e-06
 Reference value :  4.00022e-06
 Reference value :  4.00051e-06
 Reference value :  4.00082e-06
 Reference value :  4.00118e-06
 Reference value :  4.00158e-06
 Reference value :  4.00201e-06
 Reference value :  4.00242e-06
 Reference value :  4.00290e-06
 Reference value :  4.00342e-06
 Reference value :  4.00390e-06
 Reference value :  4.00440e-06
 Reference value :  4.00483e-06
 Reference value :  4.00533e-06
 Reference value :  4.00597e-06
 Reference value :  4.00666e-06
 Reference value :  4.00768e-06
 Reference value :  4.00848e-06
 Reference value :  4.00932e-06
 Reference value :  4.01017e-06
 Reference value :  4.01112e-06
 Reference value :  4.01190e-06
 Reference value :  4.01268e-06
 Reference value :  4.01352e-06
 Reference value :  4.01440e-06
 Reference value :  4.01528e-06
 Reference value :  4.01622e-06
 Reference value :  4.01720e-06
 Reference value :  4.01874e-06
 Reference value :  4.02345e-06
 Reference value :  4.03634e-06
 Reference value :  4.04491e-06
 Reference value :  4.05428e-06
 Reference value :  4.06340e-06
 Reference value :  4.06776e-06
 Reference value :  4.07715e-06
 Reference value :  4.09056e-06
 Reference value :  4.11810e-06
 Reference value :  4.18200e-06
 Reference value :  4.22170e-06
 Reference value :  4.25010e-06
 Reference value :  4.25011e-06
 Reference value :  4.25017e-06
 Reference value :  4.25020e-06
 Reference value :  4.25022e-06
 Reference value :  4.25032e-06
 Reference value :  4.25053e-06
 Reference value :  4.25096e-06
 Reference value :  4.25180e-06
 Reference value :  4.25291e-06
 Reference value :  4.25352e-06
 Reference value :  4.25407e-06
 Reference value :  4.25468e-06
 Reference value :  4.25529e-06
 Reference value :  4.25749e-06
 Reference value :  4.25906e-06
 Reference value :  4.26174e-06
 Reference value :  4.27349e-06
 Reference value :  4.28421e-06
 Reference value :  4.29499e-06
 Reference value :  4.30698e-06
 Reference value :  4.34605e-06
 Reference value :  4.47216e-06
 Reference value :  4.50001e-06
 Reference value :  4.50003e-06
 Reference value :  4.50010e-06
 Reference value :  4.50012e-06
 Reference value :  4.50016e-06
 Reference value :  4.50022e-06
 Reference value :  4.50035e-06
 Reference value :  4.50090e-06
 Reference value :  4.50136e-06
 Reference value :  4.50183e-06
 Reference value :  4.50230e-06
 Reference value :  4.50282e-06
 Reference value :  4.50336e-06
 Reference value :  4.50393e-06
 Reference value :  4.50456e-06
 Reference value :  4.50534e-06
 Reference value :  4.50590e-06
 Reference value :  4.50658e-06
 Reference value :  4.50742e-06
 Reference value :  4.50828e-06
 Reference value :  4.50914e-06
 Reference value :  4.51015e-06
 Reference value :  4.51354e-06
 Reference value :  4.51680e-06
 Reference value :  4.53360e-06
 Reference value :  4.58925e-06
 Reference value :  4.75010e-06
 Reference value :  4.75011e-06
 Reference value :  4.75013e-06
 Reference value :  4.75020e-06
 Reference value :  4.75022e-06
 Reference value :  4.75026e-06
 Reference value :  4.75039e-06
 Reference value :  4.75071e-06
 Reference value :  4.75096e-06
 Reference value :  4.75140e-06
 Reference value :  4.75227e-06
 Reference value :  4.75290e-06
 Reference value :  4.75354e-06
 Reference value :  4.75414e-06
 Reference value :  4.75471e-06
 Reference value :  4.75531e-06
 Reference value :  4.75607e-06
 Reference value :  4.75689e-06
 Reference value :  4.75770e-06
 Reference value :  4.75857e-06
 Reference value :  4.76163e-06
 Reference value :  4.76859e-06
 Reference value :  4.79320e-06
 Reference value :  4.88833e-06
 Reference value :  5.00001e-06
 Reference value :  5.00003e-06
 Reference value :  5.00010e-06
 Reference value :  5.00012e-06
 Reference value :  5.00016e-06
 Reference value :  5.00022e-06
 Reference value :  5.00035e-06
 Reference value :  5.00057e-06
 Reference value :  5.00090e-06
 Reference value :  5.00136e-06
 Reference value :  5.00183e-06
 Reference value :  5.00230e-06
 Reference value :  5.00281e-06
 Reference value :  5.00338e-06
 Reference value :  5.00445e-06
 Reference value :  5.00491e-06
 Reference value :  5.00618e-06
 Reference value :  5.00796e-06
 Reference value :  5.00877e-06
 Reference value :  5.00962e-06
 Reference value :  5.01050e-06
 Reference value :  5.01146e-06
 Reference value :  5.01215e-06
 Reference value :  5.01359e-06
 Reference value :  5.01445e-06
 Reference value :  5.01528e-06
 Reference value :  5.01628e-06
 Reference value :  5.01734e-06
 Reference value :  5.01896e-06
 Reference value :  5.02446e-06
 Reference value :  5.02784e-06
 Reference value :  5.03030e-06
 Reference value :  5.03263e-06
 Reference value :  5.03802e-06
 Reference value :  5.04843e-06
 Reference value :  5.07024e-06
 Reference value :  5.10059e-06
 Reference value :  5.15549e-06
 Reference value :  5.25010e-06
 Reference value :  5.25013e-06
 Reference value :  5.25017e-06
 Reference value :  5.25021e-06
 Reference value :  5.25026e-06
 Reference value :  5.25032e-06
 Reference value :  5.25039e-06
 Reference value :  5.25069e-06
 Reference value :  5.25095e-06
 Reference value :  5.25137e-06
 Reference value :  5.25178e-06
 Reference value :  5.25223e-06
 Reference value :  5.25285e-06
 Reference value :  5.25349e-06
 Reference value :  5.25405e-06
 Reference value :  5.25464e-06
 Reference value :  5.25523e-06
 Reference value :  5.25619e-06
 Reference value :  5.25897e-06
 Reference value :  5.26560e-06
 Reference value :  5.27445e-06
 Reference value :  5.32548e-06
 Reference value :  5.50000e-06
 Reference value :  5.50001e-06
 Reference value :  5.50007e-06
 Reference value :  5.50010e-06
 Reference value :  5.50012e-06
 Reference value :  5.50016e-06
 Reference value :  5.50035e-06
 Reference value :  5.50057e-06
 Reference value :  5.50090e-06
 Reference value :  5.50136e-06
 Reference value :  5.50183e-06
 Reference value :  5.50230e-06
 Reference value :  5.50281e-06
 Reference value :  5.50340e-06
 Reference value :  5.50395e-06
 Reference value :  5.50458e-06
 Reference value :  5.50537e-06
 Reference value :  5.50595e-06
 Reference value :  5.50662e-06
 Reference value :  5.50747e-06
 Reference value :  5.50835e-06
 Reference value :  5.50921e-06
 Reference value :  5.51025e-06
 Reference value :  5.51363e-06
 Reference value :  5.52249e-06
 Reference value :  5.54920e-06
 Reference value :  5.64993e-06
 Reference value :  5.75011e-06
 Reference value :  5.75017e-06
 Reference value :  5.75021e-06
 Reference value :  5.75026e-06
 Reference value :  5.75032e-06
 Reference value :  5.75039e-06
 Reference value :  5.75071e-06
 Reference value :  5.75096e-06
 Reference value :  5.75140e-06
 Reference value :  5.75227e-06
 Reference value :  5.75290e-06
 Reference value :  5.75353e-06
 Reference value :  5.75414e-06
 Reference value :  5.75472e-06
 Reference value :  5.75607e-06
 Reference value :  5.75857e-06
 Reference value :  5.76460e-06
 Reference value :  5.78747e-06
 Reference value :  5.87895e-06
 Reference value :  6.00001e-06
 Reference value :  6.00010e-06
 Reference value :  6.00016e-06
 Reference value :  6.00035e-06
 Reference value :  6.00090e-06
 Reference value :  6.00183e-06
 Reference value :  6.00281e-06
 Reference value :  6.00394e-06
 Reference value :  6.00445e-06
 Reference value :  6.00492e-06
 Reference value :  6.00617e-06
 Reference value :  6.00840e-06
 Reference value :  6.01119e-06
 Reference value :  6.01226e-06
 Reference value :  6.01435e-06
 Reference value :  6.01547e-06
 Reference value :  6.01774e-06
 Reference value :  6.01950e-06
 Reference value :  6.02480e-06
 Reference value :  6.04679e-06
 Reference value :  6.08875e-06
 Reference value :  6.18929e-06
 Reference value :  6.25011e-06
 Reference value :  6.25017e-06
 Reference value :  6.25021e-06
 Reference value :  6.25026e-06
 Reference value :  6.25039e-06
 Reference value :  6.25069e-06
 Reference value :  6.25095e-06
 Reference value :  6.25178e-06
 Reference value :  6.25285e-06
 Reference value :  6.25349e-06
 Reference value :  6.25405e-06
 Reference value :  6.25465e-06
 Reference value :  6.25620e-06
 Reference value :  6.25899e-06
 Reference value :  6.26568e-06
 Reference value :  6.29169e-06
 Reference value :  6.39427e-06
 Reference value :  6.50001e-06
 Reference value :  6.50007e-06
 Reference value :  6.50011e-06
 Reference value :  6.50016e-06
 Reference value :  6.50035e-06
 Reference value :  6.50057e-06
 Reference value :  6.50136e-06
 Reference value :  6.50183e-06
 Reference value :  6.50230e-06
 Reference value :  6.50281e-06
 Reference value :  6.50339e-06
 Reference value :  6.50395e-06
 Reference value :  6.50536e-06
 Reference value :  6.50594e-06
 Reference value :  6.50746e-06
 Reference value :  6.50919e-06
 Reference value :  6.51023e-06
 Reference value :  6.51677e-06
 Reference value :  6.53260e-06
 Reference value :  6.58372e-06
 Reference value :  6.75010e-06
 Reference value :  6.75011e-06
 Reference value :  6.75017e-06
 Reference value :  6.75021e-06
 Reference value :  6.75026e-06
 Reference value :  6.75039e-06
 Reference value :  6.75071e-06
 Reference value :  6.75140e-06
 Reference value :  6.75227e-06
 Reference value :  6.75290e-06
 Reference value :  6.75353e-06
 Reference value :  6.75471e-06
 Reference value :  6.75531e-06
 Reference value :  6.75606e-06
 Reference value :  6.75855e-06
 Reference value :  6.76456e-06
 Reference value :  6.78727e-06
 Reference value :  6.87814e-06
 Reference value :  7.00000e-06
 Reference value :  7.00003e-06
 Reference value :  7.00010e-06
 Reference value :  7.00012e-06
 Reference value :  7.00022e-06
 Reference value :  7.00057e-06
 Reference value :  7.00136e-06
 Reference value :  7.00230e-06
 Reference value :  7.00281e-06
 Reference value :  7.00394e-06
 Reference value :  7.00445e-06
 Reference value :  7.00492e-06
 Reference value :  7.00617e-06
 Reference value :  7.00840e-06
 Reference value :  7.00990e-06
 Reference value :  7.01119e-06
 Reference value :  7.01226e-06
 Reference value :  7.01328e-06
 Reference value :  7.01435e-06
 Reference value :  7.01535e-06
 Reference value :  7.01638e-06
 Reference value :  7.01917e-06
 Reference value :  7.02414e-06
 Reference value :  7.03664e-06
 Reference value :  7.07578e-06
 Reference value :  7.15948e-06
 Reference value :  7.25010e-06
 Reference value :  7.25011e-06
 Reference value :  7.25017e-06
 Reference value :  7.25021e-06
 Reference value :  7.25026e-06
 Reference value :  7.25039e-06
 Reference value :  7.25069e-06
 Reference value :  7.25095e-06
 Reference value :  7.25178e-06
 Reference value :  7.25285e-06
 Reference value :  7.25349e-06
 Reference value :  7.25406e-06
 Reference value :  7.25465e-06
 Reference value :  7.25620e-06
 Reference value :  7.25900e-06
 Reference value :  7.26571e-06
 Reference value :  7.29179e-06
 Reference value :  7.39448e-06
 Reference value :  7.50001e-06
 Reference value :  7.50007e-06
 Reference value :  7.50011e-06
 Reference value :  7.50016e-06
 Reference value :  7.50022e-06
 Reference value :  7.50035e-06
 Reference value :  7.50090e-06
 Reference value :  7.50136e-06
 Reference value :  7.50183e-06
 Reference value :  7.50281e-06
 Reference value :  7.50339e-06
 Reference value :  7.50458e-06
 Reference value :  7.50536e-06
 Reference value :  7.50594e-06
 Reference value :  7.50746e-06
 Reference value :  7.50920e-06
 Reference value :  7.51023e-06
 Reference value :  7.51361e-06
 Reference value :  7.52248e-06
 Reference value :  7.54921e-06
 Reference value :  7.65005e-06
 Reference value :  7.75011e-06
 Reference value :  7.75017e-06
 Reference value :  7.75021e-06
 Reference value :  7.75026e-06
 Reference value :  7.75039e-06
 Reference value :  7.75071e-06
 Reference value :  7.75140e-06
 Reference value :  7.75227e-06
 Reference value :  7.75290e-06
 Reference value :  7.75413e-06
 Reference value :  7.75471e-06
 Reference value :  7.75605e-06
 Reference value :  7.75854e-06
 Reference value :  7.76452e-06
 Reference value :  7.78710e-06
 Reference value :  7.87742e-06
 Reference value :  8.00000e-06
 Reference value :  8.00003e-06
 Reference value :  8.00010e-06
 Reference value :  8.00012e-06
 Reference value :  8.00022e-06
 Reference value :  8.00057e-06
 Reference value :  8.00136e-06
 Reference value :  8.00183e-06
 Reference value :  8.00281e-06
 Reference value :  8.00395e-06
 Reference value :  8.00494e-06
 Reference value :  8.00620e-06
 Reference value :  8.00695e-06
 Reference value :  8.00778e-06
 Reference value :  8.00982e-06
 Reference value :  8.01405e-06
 Reference value :  8.02652e-06
 Reference value :  8.07177e-06
 Reference value :  8.25010e-06
 Reference value :  8.25011e-06
 Reference value :  8.25017e-06
 Reference value :  8.25021e-06
 Reference value :  8.25026e-06
 Reference value :  8.25032e-06
 Reference value :  8.25058e-06
 Reference value :  8.25119e-06
 Reference value :  8.25160e-06
 Reference value :  8.25199e-06
 Reference value :  8.25255e-06
 Reference value :  8.25326e-06
 Reference value :  8.25475e-06
 Reference value :  8.25570e-06
 Reference value :  8.25813e-06
 Reference value :  8.26007e-06
 Reference value :  8.26281e-06
 Reference value :  8.26766e-06
 Reference value :  8.28596e-06
 Reference value :  8.33651e-06
 Reference value :  8.50000e-06
No. of Data Rows : 1233
ngspice-44 done
