
Note: Compatibility modes selected: hs a


Circuit: ** sch_path: /home/ece/cace/sar-adc-using-sky130-pdk/runs/run_2025-09-10_19-58-20/parameters/sampling_rate/run_31/sampling_rate.sch

option SCALE: Scale is set to 1e-06 for instance and model parameters
option SCALE: Scale is set to 1e-06 for instance and model parameters
option SCALE: Scale is set to 1e-06 for instance and model parameters
option SCALE: Scale is set to 1e-06 for instance and model parameters
Doing analysis at TEMP = 27.000000 and TNOM = 27.000000

Using KLU as Direct Linear Solver
Operating point simulation skipped by 'uic',
  now using transient initial conditions.
 Reference value :  1.00000e-12
 Reference value :  1.08400e-12
 Reference value :  3.14197e-12
 Reference value :  1.35355e-11
 Reference value :  1.00000e-10
 Reference value :  1.39499e-10
 Reference value :  2.74925e-10
 Reference value :  6.71354e-10
 Reference value :  1.37760e-09
 Reference value :  2.47628e-09
 Reference value :  4.11781e-09
 Reference value :  5.06570e-09
 Reference value :  6.70000e-09
 Reference value :  9.42461e-09
 Reference value :  1.16287e-08
 Reference value :  1.44368e-08
 Reference value :  2.02557e-08
 Reference value :  2.75774e-08
 Reference value :  4.70449e-08
 Reference value :  1.35580e-07
 Reference value :  2.50110e-07
 Reference value :  2.50200e-07
 Reference value :  2.50255e-07
 Reference value :  2.50550e-07
 Reference value :  2.51487e-07
 Reference value :  2.53135e-07
 Reference value :  2.54452e-07
 Reference value :  2.56455e-07
 Reference value :  2.61346e-07
 Reference value :  2.76221e-07
 Reference value :  2.89726e-07
 Reference value :  3.04233e-07
 Reference value :  3.15709e-07
 Reference value :  3.36926e-07
 Reference value :  4.99281e-07
 Reference value :  5.00030e-07
 Reference value :  5.00108e-07
 Reference value :  5.00220e-07
 Reference value :  5.00857e-07
 Reference value :  5.01576e-07
 Reference value :  5.02996e-07
 Reference value :  5.04910e-07
 Reference value :  5.08635e-07
 Reference value :  5.09862e-07
 Reference value :  5.12599e-07
 Reference value :  5.17987e-07
 Reference value :  5.47681e-07
 Reference value :  7.50100e-07
 Reference value :  7.50170e-07
 Reference value :  7.50224e-07
 Reference value :  7.50448e-07
 Reference value :  7.51576e-07
 Reference value :  7.52526e-07
 Reference value :  7.53777e-07
 Reference value :  7.54920e-07
 Reference value :  7.56260e-07
 Reference value :  7.57934e-07
 Reference value :  7.60505e-07
 Reference value :  7.68220e-07
 Reference value :  8.12317e-07
 Reference value :  1.00000e-06
 Reference value :  1.00007e-06
 Reference value :  1.00012e-06
 Reference value :  1.00035e-06
 Reference value :  1.00086e-06
 Reference value :  1.00162e-06
 Reference value :  1.00307e-06
 Reference value :  1.00418e-06
 Reference value :  1.00518e-06
 Reference value :  1.00804e-06
 Reference value :  1.01007e-06
 Reference value :  1.01194e-06
 Reference value :  1.01368e-06
 Reference value :  1.01522e-06
 Reference value :  1.01798e-06
 Reference value :  1.02534e-06
 Reference value :  1.08166e-06
 Reference value :  1.17601e-06
 Reference value :  1.21762e-06
 Reference value :  1.24385e-06
 Reference value :  1.25011e-06
 Reference value :  1.25020e-06
 Reference value :  1.25026e-06
 Reference value :  1.25070e-06
 Reference value :  1.25203e-06
 Reference value :  1.25378e-06
 Reference value :  1.25503e-06
 Reference value :  1.25803e-06
 Reference value :  1.27261e-06
 Reference value :  1.36643e-06
 Reference value :  1.50001e-06
 Reference value :  1.50010e-06
 Reference value :  1.50016e-06
 Reference value :  1.50054e-06
 Reference value :  1.50119e-06
 Reference value :  1.50163e-06
 Reference value :  1.50306e-06
 Reference value :  1.50418e-06
 Reference value :  1.50630e-06
 Reference value :  1.50793e-06
 Reference value :  1.50981e-06
 Reference value :  1.51208e-06
 Reference value :  1.54196e-06
 Reference value :  1.75011e-06
 Reference value :  1.75020e-06
 Reference value :  1.75026e-06
 Reference value :  1.75070e-06
 Reference value :  1.75203e-06
 Reference value :  1.75325e-06
 Reference value :  1.75378e-06
 Reference value :  1.75491e-06
 Reference value :  1.75637e-06
 Reference value :  1.76460e-06
 Reference value :  1.84973e-06
 Reference value :  2.00001e-06
 Reference value :  2.00010e-06
 Reference value :  2.00016e-06
 Reference value :  2.00054e-06
 Reference value :  2.00119e-06
 Reference value :  2.00210e-06
 Reference value :  2.00307e-06
 Reference value :  2.00473e-06
 Reference value :  2.00580e-06
 Reference value :  2.00866e-06
 Reference value :  2.01028e-06
 Reference value :  2.01341e-06
 Reference value :  2.01557e-06
 Reference value :  2.01648e-06
 Reference value :  2.01869e-06
 Reference value :  2.02443e-06
 Reference value :  2.08018e-06
 Reference value :  2.14775e-06
 Reference value :  2.17336e-06
 Reference value :  2.19107e-06
 Reference value :  2.21968e-06
 Reference value :  2.25010e-06
 Reference value :  2.25017e-06
 Reference value :  2.25022e-06
 Reference value :  2.25045e-06
 Reference value :  2.25110e-06
 Reference value :  2.25203e-06
 Reference value :  2.25324e-06
 Reference value :  2.25432e-06
 Reference value :  2.25645e-06
 Reference value :  2.26242e-06
 Reference value :  2.27031e-06
 Reference value :  2.27526e-06
 Reference value :  2.28210e-06
 Reference value :  2.29572e-06
 Reference value :  2.36667e-06
 Reference value :  2.50000e-06
 Reference value :  2.50007e-06
 Reference value :  2.50016e-06
 Reference value :  2.50054e-06
 Reference value :  2.50119e-06
 Reference value :  2.50210e-06
 Reference value :  2.50306e-06
 Reference value :  2.50489e-06
 Reference value :  2.50630e-06
 Reference value :  2.50795e-06
 Reference value :  2.50983e-06
 Reference value :  2.51209e-06
 Reference value :  2.52661e-06
 Reference value :  2.63303e-06
 Reference value :  2.75013e-06
 Reference value :  2.75021e-06
 Reference value :  2.75032e-06
 Reference value :  2.75110e-06
 Reference value :  2.75203e-06
 Reference value :  2.75325e-06
 Reference value :  2.75377e-06
 Reference value :  2.75490e-06
 Reference value :  2.75635e-06
 Reference value :  2.76450e-06
 Reference value :  2.84753e-06
 Reference value :  3.00003e-06
 Reference value :  3.00011e-06
 Reference value :  3.00022e-06
 Reference value :  3.00086e-06
 Reference value :  3.00163e-06
 Reference value :  3.00258e-06
 Reference value :  3.00307e-06
 Reference value :  3.00418e-06
 Reference value :  3.00524e-06
 Reference value :  3.00649e-06
 Reference value :  3.01027e-06
 Reference value :  3.01341e-06
 Reference value :  3.01559e-06
 Reference value :  3.01757e-06
 Reference value :  3.01991e-06
 Reference value :  3.02960e-06
 Reference value :  3.03946e-06
 Reference value :  3.04342e-06
 Reference value :  3.05074e-06
 Reference value :  3.06414e-06
 Reference value :  3.07713e-06
 Reference value :  3.10586e-06
 Reference value :  3.15701e-06
 Reference value :  3.25010e-06
 Reference value :  3.25020e-06
 Reference value :  3.25032e-06
 Reference value :  3.25157e-06
 Reference value :  3.25251e-06
 Reference value :  3.25375e-06
 Reference value :  3.25502e-06
 Reference value :  3.25800e-06
 Reference value :  3.27250e-06
 Reference value :  3.47245e-06
 Reference value :  3.50007e-06
 Reference value :  3.50016e-06
 Reference value :  3.50086e-06
 Reference value :  3.50204e-06
 Reference value :  3.50300e-06
 Reference value :  3.50490e-06
 Reference value :  3.50625e-06
 Reference value :  3.50795e-06
 Reference value :  3.50986e-06
 Reference value :  3.51216e-06
 Reference value :  3.54154e-06
 Reference value :  3.75013e-06
 Reference value :  3.75022e-06
 Reference value :  3.75109e-06
 Reference value :  3.75251e-06
 Reference value :  3.75377e-06
 Reference value :  3.75490e-06
 Reference value :  3.75623e-06
 Reference value :  3.75786e-06
 Reference value :  3.76207e-06
 Reference value :  3.80247e-06
 Reference value :  4.00003e-06
 Reference value :  4.00012e-06
 Reference value :  4.00086e-06
 Reference value :  4.00209e-06
 Reference value :  4.00364e-06
 Reference value :  4.00519e-06
 Reference value :  4.00710e-06
 Reference value :  4.01010e-06
 Reference value :  4.01197e-06
 Reference value :  4.01370e-06
 Reference value :  4.01525e-06
 Reference value :  4.01802e-06
 Reference value :  4.02563e-06
 Reference value :  4.06237e-06
 Reference value :  4.09820e-06
 Reference value :  4.15117e-06
 Reference value :  4.25010e-06
 Reference value :  4.25020e-06
 Reference value :  4.25045e-06
 Reference value :  4.25203e-06
 Reference value :  4.25376e-06
 Reference value :  4.25641e-06
 Reference value :  4.26240e-06
 Reference value :  4.28497e-06
 Reference value :  4.46554e-06
 Reference value :  4.50001e-06
 Reference value :  4.50007e-06
 Reference value :  4.50011e-06
 Reference value :  4.50016e-06
 Reference value :  4.50035e-06
 Reference value :  4.50086e-06
 Reference value :  4.50159e-06
 Reference value :  4.50204e-06
 Reference value :  4.50251e-06
 Reference value :  4.50300e-06
 Reference value :  4.50356e-06
 Reference value :  4.50411e-06
 Reference value :  4.50561e-06
 Reference value :  4.50625e-06
 Reference value :  4.50795e-06
 Reference value :  4.50986e-06
 Reference value :  4.51452e-06
 Reference value :  4.54052e-06
 Reference value :  4.62632e-06
 Reference value :  4.75011e-06
 Reference value :  4.75017e-06
 Reference value :  4.75021e-06
 Reference value :  4.75032e-06
 Reference value :  4.75109e-06
 Reference value :  4.75203e-06
 Reference value :  4.75324e-06
 Reference value :  4.75377e-06
 Reference value :  4.75490e-06
 Reference value :  4.75623e-06
 Reference value :  4.75786e-06
 Reference value :  4.76042e-06
 Reference value :  4.76795e-06
 Reference value :  4.80232e-06
 Reference value :  5.00000e-06
 Reference value :  5.00003e-06
 Reference value :  5.00011e-06
 Reference value :  5.00016e-06
 Reference value :  5.00035e-06
 Reference value :  5.00086e-06
 Reference value :  5.00119e-06
 Reference value :  5.00209e-06
 Reference value :  5.00308e-06
 Reference value :  5.00419e-06
 Reference value :  5.00519e-06
 Reference value :  5.00640e-06
 Reference value :  5.00807e-06
 Reference value :  5.01010e-06
 Reference value :  5.01197e-06
 Reference value :  5.01439e-06
 Reference value :  5.01616e-06
 Reference value :  5.01801e-06
 Reference value :  5.02256e-06
 Reference value :  5.03795e-06
 Reference value :  5.05113e-06
 Reference value :  5.05552e-06
 Reference value :  5.06303e-06
 Reference value :  5.08077e-06
 Reference value :  5.15778e-06
 Reference value :  5.21429e-06
 Reference value :  5.23201e-06
 Reference value :  5.25011e-06
 Reference value :  5.25020e-06
 Reference value :  5.25032e-06
 Reference value :  5.25109e-06
 Reference value :  5.25202e-06
 Reference value :  5.25323e-06
 Reference value :  5.25433e-06
 Reference value :  5.25651e-06
 Reference value :  5.26608e-06
 Reference value :  5.30331e-06
 Reference value :  5.34142e-06
 Reference value :  5.47100e-06
 Reference value :  5.50001e-06
 Reference value :  5.50007e-06
 Reference value :  5.50011e-06
 Reference value :  5.50016e-06
 Reference value :  5.50035e-06
 Reference value :  5.50086e-06
 Reference value :  5.50159e-06
 Reference value :  5.50300e-06
 Reference value :  5.50411e-06
 Reference value :  5.50625e-06
 Reference value :  5.50795e-06
 Reference value :  5.50986e-06
 Reference value :  5.51451e-06
 Reference value :  5.54047e-06
 Reference value :  5.74024e-06
 Reference value :  5.75017e-06
 Reference value :  5.75026e-06
 Reference value :  5.75070e-06
 Reference value :  5.75203e-06
 Reference value :  5.75324e-06
 Reference value :  5.75490e-06
 Reference value :  5.75623e-06
 Reference value :  5.75889e-06
 Reference value :  5.76476e-06
 Reference value :  5.80197e-06
 Reference value :  6.00001e-06
 Reference value :  6.00010e-06
 Reference value :  6.00016e-06
 Reference value :  6.00054e-06
 Reference value :  6.00119e-06
 Reference value :  6.00209e-06
 Reference value :  6.00308e-06
 Reference value :  6.00471e-06
 Reference value :  6.00574e-06
 Reference value :  6.00807e-06
 Reference value :  6.01010e-06
 Reference value :  6.01197e-06
 Reference value :  6.01370e-06
 Reference value :  6.01525e-06
 Reference value :  6.01803e-06
 Reference value :  6.02262e-06
 Reference value :  6.02865e-06
 Reference value :  6.03302e-06
 Reference value :  6.04115e-06
 Reference value :  6.07205e-06
 Reference value :  6.16229e-06
 Reference value :  6.25013e-06
 Reference value :  6.25021e-06
 Reference value :  6.25032e-06
 Reference value :  6.25109e-06
 Reference value :  6.25202e-06
 Reference value :  6.25323e-06
 Reference value :  6.25437e-06
 Reference value :  6.25566e-06
 Reference value :  6.25964e-06
 Reference value :  6.27236e-06
 Reference value :  6.36430e-06
 Reference value :  6.50001e-06
 Reference value :  6.50007e-06
 Reference value :  6.50012e-06
 Reference value :  6.50035e-06
 Reference value :  6.50086e-06
 Reference value :  6.50163e-06
 Reference value :  6.50307e-06
 Reference value :  6.50418e-06
 Reference value :  6.50630e-06
 Reference value :  6.50794e-06
 Reference value :  6.50982e-06
 Reference value :  6.51210e-06
 Reference value :  6.54159e-06
 Reference value :  6.75011e-06
 Reference value :  6.75020e-06
 Reference value :  6.75032e-06
 Reference value :  6.75109e-06
 Reference value :  6.75202e-06
 Reference value :  6.75324e-06
 Reference value :  6.75376e-06
 Reference value :  6.75490e-06
 Reference value :  6.75634e-06
 Reference value :  6.76124e-06
 Reference value :  6.80295e-06
 Reference value :  7.00000e-06
 Reference value :  7.00007e-06
 Reference value :  7.00012e-06
 Reference value :  7.00035e-06
 Reference value :  7.00086e-06
 Reference value :  7.00163e-06
 Reference value :  7.00258e-06
 Reference value :  7.00307e-06
 Reference value :  7.00418e-06
 Reference value :  7.00524e-06
 Reference value :  7.00649e-06
 Reference value :  7.00866e-06
 Reference value :  7.01030e-06
 Reference value :  7.01341e-06
 Reference value :  7.01455e-06
 Reference value :  7.01654e-06
 Reference value :  7.01874e-06
 Reference value :  7.02916e-06
 Reference value :  7.10573e-06
 Reference value :  7.25011e-06
 Reference value :  7.25020e-06
 Reference value :  7.25026e-06
 Reference value :  7.25070e-06
 Reference value :  7.25156e-06
 Reference value :  7.25251e-06
 Reference value :  7.25377e-06
 Reference value :  7.25501e-06
 Reference value :  7.25805e-06
 Reference value :  7.27247e-06
 Reference value :  7.47071e-06
 Reference value :  7.50003e-06
 Reference value :  7.50011e-06
 Reference value :  7.50022e-06
 Reference value :  7.50086e-06
 Reference value :  7.50163e-06
 Reference value :  7.50306e-06
 Reference value :  7.50489e-06
 Reference value :  7.50630e-06
 Reference value :  7.50794e-06
 Reference value :  7.50983e-06
 Reference value :  7.51442e-06
 Reference value :  7.57166e-06
 Reference value :  7.75013e-06
 Reference value :  7.75021e-06
 Reference value :  7.75045e-06
 Reference value :  7.75156e-06
 Reference value :  7.75202e-06
 Reference value :  7.75323e-06
 Reference value :  7.75376e-06
 Reference value :  7.75490e-06
 Reference value :  7.75633e-06
 Reference value :  7.76121e-06
 Reference value :  7.78072e-06
 Reference value :  7.93294e-06
 Reference value :  8.00003e-06
 Reference value :  8.00011e-06
 Reference value :  8.00022e-06
 Reference value :  8.00086e-06
 Reference value :  8.00163e-06
 Reference value :  8.00258e-06
 Reference value :  8.00307e-06
 Reference value :  8.00420e-06
 Reference value :  8.00526e-06
 Reference value :  8.00736e-06
 Reference value :  8.00904e-06
 Reference value :  8.01116e-06
 Reference value :  8.02558e-06
 Reference value :  8.13421e-06
 Reference value :  8.25011e-06
 Reference value :  8.25020e-06
 Reference value :  8.25026e-06
 Reference value :  8.25070e-06
 Reference value :  8.25156e-06
 Reference value :  8.25251e-06
 Reference value :  8.25392e-06
 Reference value :  8.25675e-06
 Reference value :  8.26013e-06
 Reference value :  8.27428e-06
 Reference value :  8.49839e-06
 Reference value :  8.50003e-06
 Reference value :  8.50011e-06
 Reference value :  8.50022e-06
 Reference value :  8.50096e-06
 Reference value :  8.50248e-06
 Reference value :  8.50368e-06
 Reference value :  8.50475e-06
 Reference value :  8.50596e-06
 Reference value :  8.51292e-06
 Reference value :  8.52405e-06
 Reference value :  8.52970e-06
 Reference value :  8.53358e-06
 Reference value :  8.53630e-06
 Reference value :  8.54043e-06
 Reference value :  8.54512e-06
 Reference value :  8.55830e-06
 Reference value :  8.58815e-06
 Reference value :  8.72812e-06
 Reference value :  8.75017e-06
 Reference value :  8.75026e-06
 Reference value :  8.75070e-06
 Reference value :  8.75202e-06
 Reference value :  8.75322e-06
 Reference value :  8.75435e-06
 Reference value :  8.75643e-06
 Reference value :  8.76567e-06
 Reference value :  8.86270e-06
 Reference value :  8.91826e-06
 Reference value :  8.96873e-06
No. of Data Rows : 1344
ngspice-44 done
