
Note: Compatibility modes selected: hs a


Circuit: ** sch_path: /home/ece/cace/sar-adc-using-sky130-pdk/runs/run_2025-09-13_02-50-57/parameters/sndr/run_2/sndr_enob_fom.sch

option SCALE: Scale is set to 1e-06 for instance and model parameters
option SCALE: Scale is set to 1e-06 for instance and model parameters
option SCALE: Scale is set to 1e-06 for instance and model parameters
option SCALE: Scale is set to 1e-06 for instance and model parameters
Doing analysis at TEMP = 27.000000 and TNOM = 27.000000

Using KLU as Direct Linear Solver
Operating point simulation skipped by 'uic',
  now using transient initial conditions.
 Reference value :  1.00000e-12
 Reference value :  1.19600e-12
 Reference value :  4.49359e-12
 Reference value :  3.49343e-11
 Reference value :  1.05599e-10
 Reference value :  2.73581e-10
 Reference value :  9.82451e-10
 Reference value :  2.50457e-09
 Reference value :  5.07022e-09
 Reference value :  6.76345e-09
 Reference value :  9.16562e-09
 Reference value :  1.60723e-08
 Reference value :  2.37279e-08
 Reference value :  4.04997e-08
 Reference value :  1.64883e-07
 Reference value :  2.50130e-07
 Reference value :  2.50208e-07
 Reference value :  2.50311e-07
 Reference value :  2.50528e-07
 Reference value :  2.51270e-07
 Reference value :  2.52082e-07
 Reference value :  2.53199e-07
 Reference value :  2.54742e-07
 Reference value :  2.57388e-07
 Reference value :  2.69572e-07
 Reference value :  3.80596e-07
 Reference value :  5.00030e-07
 Reference value :  5.00124e-07
 Reference value :  5.00338e-07
 Reference value :  5.00827e-07
 Reference value :  5.01532e-07
 Reference value :  5.02338e-07
 Reference value :  5.02818e-07
 Reference value :  5.03895e-07
 Reference value :  5.06443e-07
 Reference value :  5.08785e-07
 Reference value :  5.11229e-07
 Reference value :  5.13778e-07
 Reference value :  5.20636e-07
 Reference value :  5.81625e-07
 Reference value :  7.50110e-07
 Reference value :  7.50170e-07
 Reference value :  7.50224e-07
 Reference value :  7.50448e-07
 Reference value :  7.51397e-07
 Reference value :  7.52295e-07
 Reference value :  7.53446e-07
 Reference value :  7.54484e-07
 Reference value :  7.55770e-07
 Reference value :  7.58281e-07
 Reference value :  7.63509e-07
 Reference value :  8.72991e-07
 Reference value :  1.00003e-06
 Reference value :  1.00016e-06
 Reference value :  1.00083e-06
 Reference value :  1.00158e-06
 Reference value :  1.00242e-06
 Reference value :  1.00342e-06
 Reference value :  1.00439e-06
 Reference value :  1.00533e-06
 Reference value :  1.00757e-06
 Reference value :  1.00933e-06
 Reference value :  1.01018e-06
 Reference value :  1.01192e-06
 Reference value :  1.01353e-06
 Reference value :  1.01624e-06
 Reference value :  1.02046e-06
 Reference value :  1.05336e-06
 Reference value :  1.19986e-06
 Reference value :  1.25013e-06
 Reference value :  1.25021e-06
 Reference value :  1.25045e-06
 Reference value :  1.25140e-06
 Reference value :  1.25300e-06
 Reference value :  1.25397e-06
 Reference value :  1.25601e-06
 Reference value :  1.26172e-06
 Reference value :  1.28743e-06
 Reference value :  1.49309e-06
 Reference value :  1.50003e-06
 Reference value :  1.50011e-06
 Reference value :  1.50022e-06
 Reference value :  1.50052e-06
 Reference value :  1.50119e-06
 Reference value :  1.50195e-06
 Reference value :  1.50282e-06
 Reference value :  1.50388e-06
 Reference value :  1.50536e-06
 Reference value :  1.50598e-06
 Reference value :  1.50749e-06
 Reference value :  1.50925e-06
 Reference value :  1.51147e-06
 Reference value :  1.53253e-06
 Reference value :  1.75010e-06
 Reference value :  1.75013e-06
 Reference value :  1.75020e-06
 Reference value :  1.75026e-06
 Reference value :  1.75069e-06
 Reference value :  1.75140e-06
 Reference value :  1.75299e-06
 Reference value :  1.75345e-06
 Reference value :  1.75448e-06
 Reference value :  1.75580e-06
 Reference value :  1.75837e-06
 Reference value :  1.76108e-06
 Reference value :  1.79031e-06
 Reference value :  2.00001e-06
 Reference value :  2.00010e-06
 Reference value :  2.00016e-06
 Reference value :  2.00052e-06
 Reference value :  2.00119e-06
 Reference value :  2.00201e-06
 Reference value :  2.00290e-06
 Reference value :  2.00390e-06
 Reference value :  2.00484e-06
 Reference value :  2.00664e-06
 Reference value :  2.00850e-06
 Reference value :  2.01017e-06
 Reference value :  2.01191e-06
 Reference value :  2.01353e-06
 Reference value :  2.01528e-06
 Reference value :  2.01722e-06
 Reference value :  2.02367e-06
 Reference value :  2.07799e-06
 Reference value :  2.25011e-06
 Reference value :  2.25021e-06
 Reference value :  2.25045e-06
 Reference value :  2.25140e-06
 Reference value :  2.25299e-06
 Reference value :  2.25397e-06
 Reference value :  2.25601e-06
 Reference value :  2.26174e-06
 Reference value :  2.28742e-06
 Reference value :  2.48657e-06
 Reference value :  2.50003e-06
 Reference value :  2.50011e-06
 Reference value :  2.50022e-06
 Reference value :  2.50083e-06
 Reference value :  2.50154e-06
 Reference value :  2.50282e-06
 Reference value :  2.50388e-06
 Reference value :  2.50598e-06
 Reference value :  2.50749e-06
 Reference value :  2.51029e-06
 Reference value :  2.52243e-06
 Reference value :  2.64749e-06
 Reference value :  2.75017e-06
 Reference value :  2.75026e-06
 Reference value :  2.75069e-06
 Reference value :  2.75140e-06
 Reference value :  2.75299e-06
 Reference value :  2.75397e-06
 Reference value :  2.75502e-06
 Reference value :  2.75661e-06
 Reference value :  2.75964e-06
 Reference value :  2.77493e-06
 Reference value :  3.00001e-06
 Reference value :  3.00011e-06
 Reference value :  3.00022e-06
 Reference value :  3.00083e-06
 Reference value :  3.00158e-06
 Reference value :  3.00290e-06
 Reference value :  3.00390e-06
 Reference value :  3.00484e-06
 Reference value :  3.00664e-06
 Reference value :  3.00841e-06
 Reference value :  3.01016e-06
 Reference value :  3.01191e-06
 Reference value :  3.01357e-06
 Reference value :  3.01535e-06
 Reference value :  3.01737e-06
 Reference value :  3.03052e-06
 Reference value :  3.12874e-06
 Reference value :  3.20100e-06
 Reference value :  3.25011e-06
 Reference value :  3.25020e-06
 Reference value :  3.25032e-06
 Reference value :  3.25098e-06
 Reference value :  3.25186e-06
 Reference value :  3.25299e-06
 Reference value :  3.25396e-06
 Reference value :  3.25601e-06
 Reference value :  3.26541e-06
 Reference value :  3.49267e-06
 Reference value :  3.50007e-06
 Reference value :  3.50016e-06
 Reference value :  3.50052e-06
 Reference value :  3.50154e-06
 Reference value :  3.50282e-06
 Reference value :  3.50464e-06
 Reference value :  3.50598e-06
 Reference value :  3.50749e-06
 Reference value :  3.51029e-06
 Reference value :  3.52233e-06
 Reference value :  3.58076e-06
 Reference value :  3.75013e-06
 Reference value :  3.75021e-06
 Reference value :  3.75045e-06
 Reference value :  3.75140e-06
 Reference value :  3.75299e-06
 Reference value :  3.75397e-06
 Reference value :  3.75502e-06
 Reference value :  3.75660e-06
 Reference value :  3.75963e-06
 Reference value :  3.77481e-06
 Reference value :  3.99832e-06
 Reference value :  4.00003e-06
 Reference value :  4.00011e-06
 Reference value :  4.00022e-06
 Reference value :  4.00083e-06
 Reference value :  4.00158e-06
 Reference value :  4.00242e-06
 Reference value :  4.00342e-06
 Reference value :  4.00440e-06
 Reference value :  4.00534e-06
 Reference value :  4.00758e-06
 Reference value :  4.00928e-06
 Reference value :  4.01016e-06
 Reference value :  4.01191e-06
 Reference value :  4.01355e-06
 Reference value :  4.01631e-06
 Reference value :  4.02079e-06
 Reference value :  4.03894e-06
 Reference value :  4.07278e-06
 Reference value :  4.10192e-06
 Reference value :  4.12786e-06
 Reference value :  4.13846e-06
 Reference value :  4.16160e-06
 Reference value :  4.17969e-06
 Reference value :  4.23487e-06
 Reference value :  4.25013e-06
 Reference value :  4.25021e-06
 Reference value :  4.25032e-06
 Reference value :  4.25069e-06
 Reference value :  4.25140e-06
 Reference value :  4.25299e-06
 Reference value :  4.25395e-06
 Reference value :  4.25597e-06
 Reference value :  4.26512e-06
 Reference value :  4.31475e-06
 Reference value :  4.50000e-06
 Reference value :  4.50010e-06
 Reference value :  4.50022e-06
 Reference value :  4.50083e-06
 Reference value :  4.50154e-06
 Reference value :  4.50282e-06
 Reference value :  4.50464e-06
 Reference value :  4.50598e-06
 Reference value :  4.50749e-06
 Reference value :  4.51028e-06
 Reference value :  4.52226e-06
 Reference value :  4.64452e-06
 Reference value :  4.75017e-06
 Reference value :  4.75026e-06
 Reference value :  4.75069e-06
 Reference value :  4.75140e-06
 Reference value :  4.75299e-06
 Reference value :  4.75344e-06
 Reference value :  4.75448e-06
 Reference value :  4.75579e-06
 Reference value :  4.75835e-06
 Reference value :  4.76103e-06
 Reference value :  4.78956e-06
 Reference value :  5.00000e-06
 Reference value :  5.00007e-06
 Reference value :  5.00016e-06
 Reference value :  5.00052e-06
 Reference value :  5.00119e-06
 Reference value :  5.00201e-06
 Reference value :  5.00290e-06
 Reference value :  5.00390e-06
 Reference value :  5.00484e-06
 Reference value :  5.00593e-06
 Reference value :  5.00758e-06
 Reference value :  5.00928e-06
 Reference value :  5.01015e-06
 Reference value :  5.01190e-06
 Reference value :  5.01354e-06
 Reference value :  5.01531e-06
 Reference value :  5.01729e-06
 Reference value :  5.02398e-06
 Reference value :  5.03579e-06
 Reference value :  5.03872e-06
 Reference value :  5.04407e-06
 Reference value :  5.05470e-06
 Reference value :  5.10252e-06
 Reference value :  5.25010e-06
 Reference value :  5.25017e-06
 Reference value :  5.25022e-06
 Reference value :  5.25045e-06
 Reference value :  5.25140e-06
 Reference value :  5.25299e-06
 Reference value :  5.25398e-06
 Reference value :  5.25523e-06
 Reference value :  5.25888e-06
 Reference value :  5.27236e-06
 Reference value :  5.37265e-06
 Reference value :  5.50001e-06
 Reference value :  5.50010e-06
 Reference value :  5.50016e-06
 Reference value :  5.50052e-06
 Reference value :  5.50119e-06
 Reference value :  5.50201e-06
 Reference value :  5.50290e-06
 Reference value :  5.50474e-06
 Reference value :  5.50616e-06
 Reference value :  5.50771e-06
 Reference value :  5.51086e-06
 Reference value :  5.52969e-06
 Reference value :  5.75010e-06
 Reference value :  5.75020e-06
 Reference value :  5.75032e-06
 Reference value :  5.75098e-06
 Reference value :  5.75186e-06
 Reference value :  5.75344e-06
 Reference value :  5.75448e-06
 Reference value :  5.75660e-06
 Reference value :  5.76980e-06
 Reference value :  5.95647e-06
 Reference value :  6.00007e-06
 Reference value :  6.00012e-06
 Reference value :  6.00034e-06
 Reference value :  6.00083e-06
 Reference value :  6.00158e-06
 Reference value :  6.00242e-06
 Reference value :  6.00341e-06
 Reference value :  6.00450e-06
 Reference value :  6.00554e-06
 Reference value :  6.00847e-06
 Reference value :  6.01120e-06
 Reference value :  6.01322e-06
 Reference value :  6.01524e-06
 Reference value :  6.01911e-06
 Reference value :  6.03549e-06
 Reference value :  6.11549e-06
 Reference value :  6.25011e-06
 Reference value :  6.25017e-06
 Reference value :  6.25022e-06
 Reference value :  6.25045e-06
 Reference value :  6.25140e-06
 Reference value :  6.25299e-06
 Reference value :  6.25461e-06
 Reference value :  6.25741e-06
 Reference value :  6.27237e-06
 Reference value :  6.48740e-06
 Reference value :  6.50003e-06
 Reference value :  6.50011e-06
 Reference value :  6.50022e-06
 Reference value :  6.50052e-06
 Reference value :  6.50119e-06
 Reference value :  6.50201e-06
 Reference value :  6.50290e-06
 Reference value :  6.50399e-06
 Reference value :  6.50553e-06
 Reference value :  6.50616e-06
 Reference value :  6.50771e-06
 Reference value :  6.51086e-06
 Reference value :  6.52052e-06
 Reference value :  6.58285e-06
 Reference value :  6.75011e-06
 Reference value :  6.75017e-06
 Reference value :  6.75022e-06
 Reference value :  6.75045e-06
 Reference value :  6.75098e-06
 Reference value :  6.75186e-06
 Reference value :  6.75344e-06
 Reference value :  6.75502e-06
 Reference value :  6.75661e-06
 Reference value :  6.76987e-06
 Reference value :  6.95780e-06
 Reference value :  7.00007e-06
 Reference value :  7.00016e-06
 Reference value :  7.00083e-06
 Reference value :  7.00158e-06
 Reference value :  7.00289e-06
 Reference value :  7.00396e-06
 Reference value :  7.00500e-06
 Reference value :  7.00709e-06
 Reference value :  7.00997e-06
 Reference value :  7.01223e-06
 Reference value :  7.01428e-06
 Reference value :  7.01737e-06
 Reference value :  7.03623e-06
 Reference value :  7.17908e-06
 Reference value :  7.25013e-06
 Reference value :  7.25022e-06
 Reference value :  7.25045e-06
 Reference value :  7.25140e-06
 Reference value :  7.25299e-06
 Reference value :  7.25398e-06
 Reference value :  7.25523e-06
 Reference value :  7.25887e-06
 Reference value :  7.28662e-06
 Reference value :  7.50000e-06
 Reference value :  7.50010e-06
 Reference value :  7.50016e-06
 Reference value :  7.50052e-06
 Reference value :  7.50158e-06
 Reference value :  7.50290e-06
 Reference value :  7.50399e-06
 Reference value :  7.50616e-06
 Reference value :  7.50771e-06
 Reference value :  7.51087e-06
 Reference value :  7.52950e-06
 Reference value :  7.75010e-06
 Reference value :  7.75017e-06
 Reference value :  7.75022e-06
 Reference value :  7.75045e-06
 Reference value :  7.75139e-06
 Reference value :  7.75299e-06
 Reference value :  7.75397e-06
 Reference value :  7.75502e-06
 Reference value :  7.75660e-06
 Reference value :  7.76984e-06
 Reference value :  7.95723e-06
 Reference value :  8.00003e-06
 Reference value :  8.00011e-06
 Reference value :  8.00034e-06
 Reference value :  8.00119e-06
 Reference value :  8.00201e-06
 Reference value :  8.00289e-06
 Reference value :  8.00399e-06
 Reference value :  8.00503e-06
 Reference value :  8.00639e-06
 Reference value :  8.00885e-06
 Reference value :  8.01564e-06
 Reference value :  8.12064e-06
 Reference value :  8.25013e-06
 Reference value :  8.25021e-06
 Reference value :  8.25045e-06
 Reference value :  8.25139e-06
 Reference value :  8.25298e-06
 Reference value :  8.25452e-06
 Reference value :  8.25623e-06
 Reference value :  8.25919e-06
 Reference value :  8.29144e-06
 Reference value :  8.50001e-06
 Reference value :  8.50010e-06
 Reference value :  8.50016e-06
 Reference value :  8.50059e-06
 Reference value :  8.50135e-06
 Reference value :  8.50283e-06
 Reference value :  8.50335e-06
 Reference value :  8.50438e-06
 Reference value :  8.50548e-06
 Reference value :  8.50885e-06
 Reference value :  8.51716e-06
 Reference value :  8.52103e-06
 Reference value :  8.52580e-06
 Reference value :  8.52755e-06
 Reference value :  8.53084e-06
 Reference value :  8.53218e-06
 Reference value :  8.53476e-06
 Reference value :  8.53696e-06
 Reference value :  8.53904e-06
 Reference value :  8.54251e-06
 Reference value :  8.54669e-06
 Reference value :  8.55117e-06
 Reference value :  8.55707e-06
 Reference value :  8.55914e-06
 Reference value :  8.56483e-06
 Reference value :  8.57345e-06
 Reference value :  8.58471e-06
 Reference value :  8.66535e-06
 Reference value :  8.75011e-06
 Reference value :  8.75020e-06
 Reference value :  8.75032e-06
 Reference value :  8.75098e-06
 Reference value :  8.75185e-06
 Reference value :  8.75297e-06
 Reference value :  8.75391e-06
 Reference value :  8.75592e-06
 Reference value :  8.76143e-06
 Reference value :  8.81186e-06
 Reference value :  9.00001e-06
 Reference value :  9.00010e-06
 Reference value :  9.00016e-06
 Reference value :  9.00052e-06
 Reference value :  9.00119e-06
 Reference value :  9.00195e-06
 Reference value :  9.00281e-06
 Reference value :  9.00462e-06
 Reference value :  9.00643e-06
 Reference value :  9.00878e-06
 Reference value :  9.01121e-06
 Reference value :  9.01241e-06
 Reference value :  9.01539e-06
 Reference value :  9.03342e-06
 Reference value :  9.25010e-06
 Reference value :  9.25017e-06
 Reference value :  9.25026e-06
 Reference value :  9.25069e-06
 Reference value :  9.25139e-06
 Reference value :  9.25298e-06
 Reference value :  9.25396e-06
 Reference value :  9.25500e-06
 Reference value :  9.25659e-06
 Reference value :  9.25954e-06
 Reference value :  9.27334e-06
 Reference value :  9.45177e-06
 Reference value :  9.50007e-06
 Reference value :  9.50012e-06
 Reference value :  9.50034e-06
 Reference value :  9.50083e-06
 Reference value :  9.50158e-06
 Reference value :  9.50242e-06
 Reference value :  9.50342e-06
 Reference value :  9.50440e-06
 Reference value :  9.50534e-06
 Reference value :  9.50759e-06
 Reference value :  9.50928e-06
 Reference value :  9.51111e-06
 Reference value :  9.51359e-06
 Reference value :  9.51644e-06
 Reference value :  9.52480e-06
 Reference value :  9.66753e-06
 Reference value :  9.75013e-06
 Reference value :  9.75022e-06
 Reference value :  9.75069e-06
 Reference value :  9.75140e-06
 Reference value :  9.75299e-06
 Reference value :  9.75396e-06
 Reference value :  9.75601e-06
 Reference value :  9.76543e-06
 Reference value :  9.87565e-06
 Reference value :  1.00000e-05
 Reference value :  1.00001e-05
 Reference value :  1.00005e-05
 Reference value :  1.00012e-05
 Reference value :  1.00019e-05
 Reference value :  1.00028e-05
 Reference value :  1.00039e-05
 Reference value :  1.00054e-05
 Reference value :  1.00060e-05
 Reference value :  1.00075e-05
 Reference value :  1.00092e-05
 Reference value :  1.00136e-05
 Reference value :  1.01423e-05
 Reference value :  1.02502e-05
 Reference value :  1.02504e-05
 Reference value :  1.02519e-05
 Reference value :  1.02534e-05
 Reference value :  1.02550e-05
 Reference value :  1.02575e-05
 Reference value :  1.02610e-05
 Reference value :  1.03784e-05
 Reference value :  1.05001e-05
 Reference value :  1.05003e-05
 Reference value :  1.05012e-05
 Reference value :  1.05020e-05
 Reference value :  1.05029e-05
 Reference value :  1.05044e-05
 Reference value :  1.05066e-05
 Reference value :  1.05093e-05
 Reference value :  1.05111e-05
 Reference value :  1.05127e-05
 Reference value :  1.05145e-05
 Reference value :  1.05164e-05
 Reference value :  1.05247e-05
 Reference value :  1.05927e-05
 Reference value :  1.07501e-05
 Reference value :  1.07502e-05
 Reference value :  1.07503e-05
 Reference value :  1.07510e-05
 Reference value :  1.07519e-05
 Reference value :  1.07534e-05
 Reference value :  1.07553e-05
 Reference value :  1.07590e-05
 Reference value :  1.07875e-05
 Reference value :  1.10000e-05
 Reference value :  1.10001e-05
 Reference value :  1.10001e-05
 Reference value :  1.10003e-05
 Reference value :  1.10008e-05
 Reference value :  1.10015e-05
 Reference value :  1.10028e-05
 Reference value :  1.10046e-05
 Reference value :  1.10060e-05
 Reference value :  1.10075e-05
 Reference value :  1.10103e-05
 Reference value :  1.10221e-05
 Reference value :  1.11422e-05
 Reference value :  1.12501e-05
 Reference value :  1.12502e-05
 Reference value :  1.12503e-05
 Reference value :  1.12507e-05
 Reference value :  1.12514e-05
 Reference value :  1.12530e-05
 Reference value :  1.12540e-05
 Reference value :  1.12558e-05
 Reference value :  1.12583e-05
 Reference value :  1.12610e-05
 Reference value :  1.12747e-05
 Reference value :  1.13785e-05
 Reference value :  1.15000e-05
 Reference value :  1.15001e-05
 Reference value :  1.15002e-05
 Reference value :  1.15005e-05
 Reference value :  1.15012e-05
 Reference value :  1.15016e-05
 Reference value :  1.15024e-05
 Reference value :  1.15029e-05
 Reference value :  1.15039e-05
 Reference value :  1.15048e-05
 Reference value :  1.15066e-05
 Reference value :  1.15076e-05
 Reference value :  1.15093e-05
 Reference value :  1.15102e-05
 Reference value :  1.15111e-05
 Reference value :  1.15119e-05
 Reference value :  1.15136e-05
 Reference value :  1.15154e-05
 Reference value :  1.15164e-05
 Reference value :  1.15192e-05
 Reference value :  1.15312e-05
 Reference value :  1.15618e-05
 Reference value :  1.16358e-05
 Reference value :  1.17013e-05
 Reference value :  1.17501e-05
 Reference value :  1.17501e-05
 Reference value :  1.17502e-05
 Reference value :  1.17503e-05
 Reference value :  1.17504e-05
 Reference value :  1.17510e-05
 Reference value :  1.17514e-05
 Reference value :  1.17523e-05
 Reference value :  1.17530e-05
 Reference value :  1.17534e-05
 Reference value :  1.17546e-05
 Reference value :  1.17560e-05
 Reference value :  1.17618e-05
 Reference value :  1.17728e-05
 Reference value :  1.18168e-05
 Reference value :  1.20000e-05
 Reference value :  1.20001e-05
 Reference value :  1.20001e-05
 Reference value :  1.20002e-05
 Reference value :  1.20005e-05
 Reference value :  1.20012e-05
 Reference value :  1.20019e-05
 Reference value :  1.20028e-05
 Reference value :  1.20039e-05
 Reference value :  1.20054e-05
 Reference value :  1.20060e-05
 Reference value :  1.20075e-05
 Reference value :  1.20092e-05
 Reference value :  1.20114e-05
 Reference value :  1.20315e-05
 Reference value :  1.22501e-05
 Reference value :  1.22502e-05
 Reference value :  1.22502e-05
 Reference value :  1.22504e-05
 Reference value :  1.22510e-05
 Reference value :  1.22519e-05
 Reference value :  1.22530e-05
 Reference value :  1.22540e-05
 Reference value :  1.22550e-05
 Reference value :  1.22566e-05
 Reference value :  1.22596e-05
 Reference value :  1.22673e-05
 Reference value :  1.23785e-05
 Reference value :  1.25000e-05
 Reference value :  1.25001e-05
 Reference value :  1.25002e-05
 Reference value :  1.25005e-05
 Reference value :  1.25012e-05
 Reference value :  1.25020e-05
 Reference value :  1.25029e-05
 Reference value :  1.25039e-05
 Reference value :  1.25048e-05
 Reference value :  1.25059e-05
 Reference value :  1.25076e-05
 Reference value :  1.25093e-05
 Reference value :  1.25102e-05
 Reference value :  1.25119e-05
 Reference value :  1.25136e-05
 Reference value :  1.25153e-05
 Reference value :  1.25174e-05
 Reference value :  1.25244e-05
 Reference value :  1.25577e-05
 Reference value :  1.25897e-05
 Reference value :  1.26021e-05
 Reference value :  1.26272e-05
 Reference value :  1.26491e-05
 Reference value :  1.26738e-05
 Reference value :  1.26980e-05
 Reference value :  1.27501e-05
 Reference value :  1.27502e-05
 Reference value :  1.27502e-05
 Reference value :  1.27504e-05
 Reference value :  1.27514e-05
 Reference value :  1.27530e-05
 Reference value :  1.27539e-05
 Reference value :  1.27560e-05
 Reference value :  1.27650e-05
 Reference value :  1.28120e-05
 Reference value :  1.30000e-05
 Reference value :  1.30001e-05
 Reference value :  1.30002e-05
 Reference value :  1.30005e-05
 Reference value :  1.30015e-05
 Reference value :  1.30028e-05
 Reference value :  1.30046e-05
 Reference value :  1.30060e-05
 Reference value :  1.30075e-05
 Reference value :  1.30103e-05
 Reference value :  1.30221e-05
 Reference value :  1.31422e-05
 Reference value :  1.32501e-05
 Reference value :  1.32502e-05
 Reference value :  1.32504e-05
 Reference value :  1.32514e-05
 Reference value :  1.32530e-05
 Reference value :  1.32534e-05
 Reference value :  1.32545e-05
 Reference value :  1.32558e-05
 Reference value :  1.32583e-05
 Reference value :  1.32636e-05
 Reference value :  1.33191e-05
 Reference value :  1.35000e-05
 Reference value :  1.35001e-05
 Reference value :  1.35002e-05
 Reference value :  1.35005e-05
 Reference value :  1.35016e-05
 Reference value :  1.35029e-05
 Reference value :  1.35039e-05
 Reference value :  1.35048e-05
 Reference value :  1.35066e-05
 Reference value :  1.35084e-05
 Reference value :  1.35102e-05
 Reference value :  1.35127e-05
 Reference value :  1.35145e-05
 Reference value :  1.35177e-05
 Reference value :  1.35289e-05
 Reference value :  1.35382e-05
 Reference value :  1.35413e-05
 Reference value :  1.35473e-05
 Reference value :  1.35632e-05
 Reference value :  1.36119e-05
 Reference value :  1.37501e-05
 Reference value :  1.37502e-05
 Reference value :  1.37502e-05
 Reference value :  1.37504e-05
 Reference value :  1.37510e-05
 Reference value :  1.37514e-05
 Reference value :  1.37523e-05
 Reference value :  1.37534e-05
 Reference value :  1.37552e-05
 Reference value :  1.37616e-05
 Reference value :  1.38724e-05
 Reference value :  1.40000e-05
 Reference value :  1.40001e-05
 Reference value :  1.40002e-05
 Reference value :  1.40008e-05
 Reference value :  1.40016e-05
 Reference value :  1.40029e-05
 Reference value :  1.40047e-05
 Reference value :  1.40069e-05
 Reference value :  1.40109e-05
 Reference value :  1.41535e-05
 Reference value :  1.42502e-05
 Reference value :  1.42507e-05
 Reference value :  1.42523e-05
 Reference value :  1.42534e-05
 Reference value :  1.42545e-05
 Reference value :  1.42558e-05
 Reference value :  1.42636e-05
 Reference value :  1.44556e-05
 Reference value :  1.45000e-05
 Reference value :  1.45001e-05
 Reference value :  1.45003e-05
 Reference value :  1.45012e-05
 Reference value :  1.45020e-05
 Reference value :  1.45029e-05
 Reference value :  1.45040e-05
 Reference value :  1.45050e-05
 Reference value :  1.45071e-05
 Reference value :  1.45100e-05
 Reference value :  1.45112e-05
 Reference value :  1.45132e-05
 Reference value :  1.45152e-05
 Reference value :  1.45191e-05
 Reference value :  1.45355e-05
 Reference value :  1.45831e-05
 Reference value :  1.47501e-05
 Reference value :  1.47502e-05
 Reference value :  1.47503e-05
 Reference value :  1.47514e-05
 Reference value :  1.47530e-05
 Reference value :  1.47540e-05
 Reference value :  1.47560e-05
 Reference value :  1.47652e-05
 Reference value :  1.48728e-05
 Reference value :  1.50000e-05
 Reference value :  1.50001e-05
 Reference value :  1.50003e-05
 Reference value :  1.50012e-05
 Reference value :  1.50020e-05
 Reference value :  1.50029e-05
 Reference value :  1.50040e-05
 Reference value :  1.50055e-05
 Reference value :  1.50062e-05
 Reference value :  1.50077e-05
 Reference value :  1.50096e-05
 Reference value :  1.50155e-05
 Reference value :  1.50823e-05
 Reference value :  1.52501e-05
 Reference value :  1.52502e-05
 Reference value :  1.52503e-05
 Reference value :  1.52507e-05
 Reference value :  1.52514e-05
 Reference value :  1.52523e-05
 Reference value :  1.52534e-05
 Reference value :  1.52545e-05
 Reference value :  1.52566e-05
 Reference value :  1.52823e-05
 Reference value :  1.55000e-05
 Reference value :  1.55007e-05
 Reference value :  1.55029e-05
 Reference value :  1.55043e-05
 Reference value :  1.55055e-05
 Reference value :  1.55079e-05
 Reference value :  1.55106e-05
 Reference value :  1.55130e-05
 Reference value :  1.55161e-05
 Reference value :  1.55230e-05
 Reference value :  1.56011e-05
 Reference value :  1.57501e-05
 Reference value :  1.57502e-05
 Reference value :  1.57510e-05
 Reference value :  1.57523e-05
 Reference value :  1.57539e-05
 Reference value :  1.57571e-05
 Reference value :  1.58585e-05
 Reference value :  1.60001e-05
 Reference value :  1.60003e-05
 Reference value :  1.60020e-05
 Reference value :  1.60034e-05
 Reference value :  1.60062e-05
 Reference value :  1.60086e-05
 Reference value :  1.60292e-05
 Reference value :  1.62501e-05
 Reference value :  1.62503e-05
 Reference value :  1.62514e-05
 Reference value :  1.62534e-05
 Reference value :  1.62558e-05
 Reference value :  1.62699e-05
 Reference value :  1.65000e-05
 Reference value :  1.65001e-05
 Reference value :  1.65008e-05
 Reference value :  1.65020e-05
 Reference value :  1.65040e-05
 Reference value :  1.65064e-05
 Reference value :  1.65118e-05
 Reference value :  1.67325e-05
 Reference value :  1.67502e-05
 Reference value :  1.67507e-05
 Reference value :  1.67523e-05
 Reference value :  1.67545e-05
 Reference value :  1.67577e-05
 Reference value :  1.68217e-05
 Reference value :  1.70021e-05
 Reference value :  1.70086e-05
 Reference value :  1.70189e-05
 Reference value :  1.70224e-05
 Reference value :  1.70250e-05
 Reference value :  1.70291e-05
 Reference value :  1.70319e-05
 Reference value :  1.70344e-05
 Reference value :  1.70390e-05
 Reference value :  1.70426e-05
 Reference value :  1.70475e-05
 Reference value :  1.70525e-05
 Reference value :  1.70604e-05
 Reference value :  1.70780e-05
 Reference value :  1.72501e-05
 Reference value :  1.72502e-05
 Reference value :  1.72507e-05
 Reference value :  1.72518e-05
 Reference value :  1.72532e-05
 Reference value :  1.72542e-05
 Reference value :  1.72577e-05
 Reference value :  1.72665e-05
 Reference value :  1.74856e-05
 Reference value :  1.75001e-05
 Reference value :  1.75003e-05
 Reference value :  1.75015e-05
 Reference value :  1.75028e-05
 Reference value :  1.75053e-05
 Reference value :  1.75088e-05
 Reference value :  1.75112e-05
 Reference value :  1.75137e-05
 Reference value :  1.75204e-05
 Reference value :  1.76392e-05
 Reference value :  1.77502e-05
 Reference value :  1.77503e-05
 Reference value :  1.77510e-05
 Reference value :  1.77519e-05
 Reference value :  1.77530e-05
 Reference value :  1.77540e-05
 Reference value :  1.77550e-05
 Reference value :  1.77566e-05
 Reference value :  1.77583e-05
 Reference value :  1.77595e-05
 Reference value :  1.77669e-05
 Reference value :  1.78144e-05
 Reference value :  1.80004e-05
 Reference value :  1.80016e-05
 Reference value :  1.80031e-05
 Reference value :  1.80046e-05
 Reference value :  1.80052e-05
 Reference value :  1.80083e-05
 Reference value :  1.80113e-05
 Reference value :  1.80137e-05
 Reference value :  1.80165e-05
 Reference value :  1.80255e-05
 Reference value :  1.81448e-05
 Reference value :  1.82501e-05
 Reference value :  1.82502e-05
 Reference value :  1.82503e-05
 Reference value :  1.82510e-05
 Reference value :  1.82523e-05
 Reference value :  1.82539e-05
 Reference value :  1.82573e-05
 Reference value :  1.83621e-05
 Reference value :  1.85001e-05
 Reference value :  1.85002e-05
 Reference value :  1.85005e-05
 Reference value :  1.85015e-05
 Reference value :  1.85028e-05
 Reference value :  1.85039e-05
 Reference value :  1.85054e-05
 Reference value :  1.85066e-05
 Reference value :  1.85084e-05
 Reference value :  1.85114e-05
 Reference value :  1.85473e-05
 Reference value :  1.87501e-05
 Reference value :  1.87502e-05
 Reference value :  1.87504e-05
 Reference value :  1.87514e-05
 Reference value :  1.87530e-05
 Reference value :  1.87540e-05
 Reference value :  1.87550e-05
 Reference value :  1.87566e-05
 Reference value :  1.87584e-05
 Reference value :  1.87637e-05
 Reference value :  1.88203e-05
 Reference value :  1.90000e-05
 Reference value :  1.90001e-05
 Reference value :  1.90003e-05
 Reference value :  1.90008e-05
 Reference value :  1.90016e-05
 Reference value :  1.90024e-05
 Reference value :  1.90029e-05
 Reference value :  1.90039e-05
 Reference value :  1.90048e-05
 Reference value :  1.90059e-05
 Reference value :  1.90076e-05
 Reference value :  1.90084e-05
 Reference value :  1.90102e-05
 Reference value :  1.90119e-05
 Reference value :  1.90136e-05
 Reference value :  1.90154e-05
 Reference value :  1.90164e-05
 Reference value :  1.90192e-05
 Reference value :  1.90247e-05
 Reference value :  1.90423e-05
 Reference value :  1.90928e-05
 Reference value :  1.92362e-05
 Reference value :  1.92501e-05
 Reference value :  1.92502e-05
 Reference value :  1.92503e-05
 Reference value :  1.92507e-05
 Reference value :  1.92514e-05
 Reference value :  1.92523e-05
 Reference value :  1.92534e-05
 Reference value :  1.92553e-05
 Reference value :  1.92590e-05
 Reference value :  1.92728e-05
 Reference value :  1.94870e-05
 Reference value :  1.95002e-05
 Reference value :  1.95009e-05
 Reference value :  1.95015e-05
 Reference value :  1.95028e-05
 Reference value :  1.95046e-05
 Reference value :  1.95060e-05
 Reference value :  1.95074e-05
 Reference value :  1.95102e-05
 Reference value :  1.95165e-05
 Reference value :  1.95543e-05
 Reference value :  1.97501e-05
 Reference value :  1.97502e-05
 Reference value :  1.97503e-05
 Reference value :  1.97514e-05
 Reference value :  1.97530e-05
 Reference value :  1.97540e-05
 Reference value :  1.97558e-05
 Reference value :  1.97596e-05
 Reference value :  1.97895e-05
 Reference value :  2.00000e-05
 Reference value :  2.00001e-05
 Reference value :  2.00002e-05
 Reference value :  2.00008e-05
 Reference value :  2.00016e-05
 Reference value :  2.00024e-05
 Reference value :  2.00034e-05
 Reference value :  2.00044e-05
 Reference value :  2.00053e-05
 Reference value :  2.00076e-05
 Reference value :  2.00093e-05
 Reference value :  2.00102e-05
 Reference value :  2.00119e-05
 Reference value :  2.00136e-05
 Reference value :  2.00154e-05
 Reference value :  2.00174e-05
 Reference value :  2.00312e-05
 Reference value :  2.01358e-05
 Reference value :  2.02014e-05
 Reference value :  2.02501e-05
 Reference value :  2.02502e-05
 Reference value :  2.02507e-05
 Reference value :  2.02519e-05
 Reference value :  2.02534e-05
 Reference value :  2.02560e-05
 Reference value :  2.02728e-05
 Reference value :  2.05000e-05
 Reference value :  2.05001e-05
 Reference value :  2.05005e-05
 Reference value :  2.05015e-05
 Reference value :  2.05029e-05
 Reference value :  2.05048e-05
 Reference value :  2.05064e-05
 Reference value :  2.05080e-05
 Reference value :  2.05098e-05
 Reference value :  2.05395e-05
 Reference value :  2.07501e-05
 Reference value :  2.07502e-05
 Reference value :  2.07503e-05
 Reference value :  2.07514e-05
 Reference value :  2.07530e-05
 Reference value :  2.07540e-05
 Reference value :  2.07558e-05
 Reference value :  2.07596e-05
 Reference value :  2.07900e-05
 Reference value :  2.10000e-05
 Reference value :  2.10002e-05
 Reference value :  2.10005e-05
 Reference value :  2.10016e-05
 Reference value :  2.10029e-05
 Reference value :  2.10044e-05
 Reference value :  2.10059e-05
 Reference value :  2.10076e-05
 Reference value :  2.10102e-05
 Reference value :  2.10119e-05
 Reference value :  2.10136e-05
 Reference value :  2.10164e-05
 Reference value :  2.10209e-05
 Reference value :  2.10738e-05
 Reference value :  2.11017e-05
 Reference value :  2.11212e-05
 Reference value :  2.11391e-05
 Reference value :  2.11666e-05
 Reference value :  2.11813e-05
 Reference value :  2.11912e-05
 Reference value :  2.12161e-05
 Reference value :  2.12501e-05
 Reference value :  2.12502e-05
 Reference value :  2.12503e-05
 Reference value :  2.12507e-05
 Reference value :  2.12514e-05
 Reference value :  2.12523e-05
 Reference value :  2.12530e-05
 Reference value :  2.12534e-05
 Reference value :  2.12546e-05
 Reference value :  2.12560e-05
 Reference value :  2.12588e-05
 Reference value :  2.12721e-05
 Reference value :  2.13065e-05
 Reference value :  2.14418e-05
 Reference value :  2.15000e-05
 Reference value :  2.15001e-05
 Reference value :  2.15002e-05
 Reference value :  2.15008e-05
 Reference value :  2.15015e-05
 Reference value :  2.15023e-05
 Reference value :  2.15028e-05
 Reference value :  2.15039e-05
 Reference value :  2.15054e-05
 Reference value :  2.15060e-05
 Reference value :  2.15075e-05
 Reference value :  2.15092e-05
 Reference value :  2.15114e-05
 Reference value :  2.15221e-05
 Reference value :  2.15789e-05
 Reference value :  2.17501e-05
 Reference value :  2.17502e-05
 Reference value :  2.17503e-05
 Reference value :  2.17510e-05
 Reference value :  2.17519e-05
 Reference value :  2.17530e-05
 Reference value :  2.17534e-05
 Reference value :  2.17545e-05
 Reference value :  2.17558e-05
 Reference value :  2.17583e-05
 Reference value :  2.17636e-05
 Reference value :  2.18191e-05
 Reference value :  2.20001e-05
 Reference value :  2.20001e-05
 Reference value :  2.20003e-05
 Reference value :  2.20012e-05
 Reference value :  2.20020e-05
 Reference value :  2.20029e-05
 Reference value :  2.20039e-05
 Reference value :  2.20048e-05
 Reference value :  2.20066e-05
 Reference value :  2.20084e-05
 Reference value :  2.20102e-05
 Reference value :  2.20119e-05
 Reference value :  2.20135e-05
 Reference value :  2.20153e-05
 Reference value :  2.20173e-05
 Reference value :  2.20206e-05
 Reference value :  2.20313e-05
 Reference value :  2.20354e-05
 Reference value :  2.20382e-05
 Reference value :  2.20436e-05
 Reference value :  2.20551e-05
 Reference value :  2.20851e-05
 Reference value :  2.22015e-05
 Reference value :  2.22501e-05
 Reference value :  2.22502e-05
 Reference value :  2.22504e-05
 Reference value :  2.22514e-05
 Reference value :  2.22523e-05
 Reference value :  2.22535e-05
 Reference value :  2.22546e-05
 Reference value :  2.22574e-05
 Reference value :  2.22723e-05
 Reference value :  2.24869e-05
 Reference value :  2.25001e-05
 Reference value :  2.25002e-05
 Reference value :  2.25005e-05
 Reference value :  2.25012e-05
 Reference value :  2.25020e-05
 Reference value :  2.25029e-05
 Reference value :  2.25047e-05
 Reference value :  2.25062e-05
 Reference value :  2.25077e-05
 Reference value :  2.25109e-05
 Reference value :  2.25295e-05
 Reference value :  2.27501e-05
 Reference value :  2.27502e-05
 Reference value :  2.27507e-05
 Reference value :  2.27519e-05
 Reference value :  2.27534e-05
 Reference value :  2.27550e-05
 Reference value :  2.27603e-05
 Reference value :  2.29563e-05
 Reference value :  2.30007e-05
 Reference value :  2.30030e-05
 Reference value :  2.30051e-05
 Reference value :  2.30081e-05
 Reference value :  2.30109e-05
 Reference value :  2.30140e-05
 Reference value :  2.30169e-05
 Reference value :  2.30418e-05
 Reference value :  2.32501e-05
 Reference value :  2.32503e-05
 Reference value :  2.32514e-05
 Reference value :  2.32534e-05
 Reference value :  2.32559e-05
 Reference value :  2.33093e-05
 Reference value :  2.35001e-05
 Reference value :  2.35003e-05
 Reference value :  2.35016e-05
 Reference value :  2.35034e-05
 Reference value :  2.35062e-05
 Reference value :  2.35096e-05
 Reference value :  2.35465e-05
 Reference value :  2.37501e-05
 Reference value :  2.37502e-05
 Reference value :  2.37503e-05
 Reference value :  2.37510e-05
 Reference value :  2.37519e-05
 Reference value :  2.37530e-05
 Reference value :  2.37540e-05
 Reference value :  2.37550e-05
 Reference value :  2.37566e-05
 Reference value :  2.37697e-05
 Reference value :  2.39540e-05
 Reference value :  2.40001e-05
 Reference value :  2.40002e-05
 Reference value :  2.40005e-05
 Reference value :  2.40016e-05
 Reference value :  2.40024e-05
 Reference value :  2.40034e-05
 Reference value :  2.40045e-05
 Reference value :  2.40055e-05
 Reference value :  2.40085e-05
 Reference value :  2.40112e-05
 Reference value :  2.40132e-05
 Reference value :  2.40152e-05
 Reference value :  2.40174e-05
 Reference value :  2.40208e-05
 Reference value :  2.40364e-05
 Reference value :  2.41135e-05
 Reference value :  2.42501e-05
 Reference value :  2.42502e-05
 Reference value :  2.42502e-05
 Reference value :  2.42503e-05
 Reference value :  2.42510e-05
 Reference value :  2.42519e-05
 Reference value :  2.42530e-05
 Reference value :  2.42534e-05
 Reference value :  2.42546e-05
 Reference value :  2.42560e-05
 Reference value :  2.42616e-05
 Reference value :  2.43152e-05
 Reference value :  2.45000e-05
 Reference value :  2.45001e-05
 Reference value :  2.45001e-05
 Reference value :  2.45003e-05
 Reference value :  2.45008e-05
 Reference value :  2.45016e-05
 Reference value :  2.45029e-05
 Reference value :  2.45040e-05
 Reference value :  2.45055e-05
 Reference value :  2.45062e-05
 Reference value :  2.45077e-05
 Reference value :  2.45109e-05
 Reference value :  2.45295e-05
 Reference value :  2.46518e-05
 Reference value :  2.47501e-05
 Reference value :  2.47502e-05
 Reference value :  2.47503e-05
 Reference value :  2.47510e-05
 Reference value :  2.47519e-05
 Reference value :  2.47530e-05
 Reference value :  2.47540e-05
 Reference value :  2.47550e-05
 Reference value :  2.47566e-05
 Reference value :  2.47698e-05
 Reference value :  2.49569e-05
 Reference value :  2.50001e-05
 Reference value :  2.50001e-05
 Reference value :  2.50003e-05
 Reference value :  2.50008e-05
 Reference value :  2.50016e-05
 Reference value :  2.50029e-05
 Reference value :  2.50045e-05
 Reference value :  2.50056e-05
 Reference value :  2.50072e-05
 Reference value :  2.50088e-05
 Reference value :  2.50156e-05
 Reference value :  2.51206e-05
 Reference value :  2.52501e-05
 Reference value :  2.52502e-05
 Reference value :  2.52503e-05
 Reference value :  2.52510e-05
 Reference value :  2.52519e-05
 Reference value :  2.52530e-05
 Reference value :  2.52545e-05
 Reference value :  2.52562e-05
 Reference value :  2.52619e-05
 Reference value :  2.53217e-05
 Reference value :  2.55021e-05
 Reference value :  2.55086e-05
 Reference value :  2.55155e-05
 Reference value :  2.55224e-05
 Reference value :  2.55250e-05
 Reference value :  2.55271e-05
 Reference value :  2.55307e-05
 Reference value :  2.55332e-05
 Reference value :  2.55356e-05
 Reference value :  2.55390e-05
 Reference value :  2.55426e-05
 Reference value :  2.55478e-05
 Reference value :  2.55537e-05
 Reference value :  2.55591e-05
 Reference value :  2.55719e-05
 Reference value :  2.55828e-05
 Reference value :  2.56264e-05
 Reference value :  2.57501e-05
 Reference value :  2.57502e-05
 Reference value :  2.57503e-05
 Reference value :  2.57507e-05
 Reference value :  2.57514e-05
 Reference value :  2.57518e-05
 Reference value :  2.57528e-05
 Reference value :  2.57532e-05
 Reference value :  2.57542e-05
 Reference value :  2.57554e-05
 Reference value :  2.57594e-05
 Reference value :  2.57750e-05
 Reference value :  2.59860e-05
 Reference value :  2.60001e-05
 Reference value :  2.60005e-05
 Reference value :  2.60015e-05
 Reference value :  2.60028e-05
 Reference value :  2.60053e-05
 Reference value :  2.60077e-05
 Reference value :  2.60099e-05
 Reference value :  2.60124e-05
 Reference value :  2.60172e-05
 Reference value :  2.60793e-05
 Reference value :  2.62501e-05
 Reference value :  2.62502e-05
 Reference value :  2.62507e-05
 Reference value :  2.62514e-05
 Reference value :  2.62530e-05
 Reference value :  2.62540e-05
 Reference value :  2.62550e-05
 Reference value :  2.62566e-05
 Reference value :  2.62595e-05
 Reference value :  2.62737e-05
 Reference value :  2.65000e-05
 Reference value :  2.65004e-05
 Reference value :  2.65016e-05
 Reference value :  2.65025e-05
 Reference value :  2.65036e-05
 Reference value :  2.65046e-05
 Reference value :  2.65064e-05
 Reference value :  2.65093e-05
 Reference value :  2.65113e-05
 Reference value :  2.65128e-05
 Reference value :  2.65146e-05
 Reference value :  2.65165e-05
 Reference value :  2.65255e-05
 Reference value :  2.67501e-05
 Reference value :  2.67502e-05
 Reference value :  2.67507e-05
 Reference value :  2.67519e-05
 Reference value :  2.67534e-05
 Reference value :  2.67551e-05
 Reference value :  2.67646e-05
 Reference value :  2.69661e-05
 Reference value :  2.70001e-05
 Reference value :  2.70003e-05
 Reference value :  2.70012e-05
 Reference value :  2.70023e-05
 Reference value :  2.70033e-05
 Reference value :  2.70054e-05
 Reference value :  2.70060e-05
 Reference value :  2.70075e-05
 Reference value :  2.70092e-05
 Reference value :  2.70103e-05
 Reference value :  2.70167e-05
 Reference value :  2.70473e-05
 Reference value :  2.72501e-05
 Reference value :  2.72501e-05
 Reference value :  2.72502e-05
 Reference value :  2.72503e-05
 Reference value :  2.72507e-05
 Reference value :  2.72514e-05
 Reference value :  2.72523e-05
 Reference value :  2.72534e-05
 Reference value :  2.72545e-05
 Reference value :  2.72558e-05
 Reference value :  2.72575e-05
 Reference value :  2.72596e-05
 Reference value :  2.72750e-05
 Reference value :  2.75000e-05
 Reference value :  2.75001e-05
 Reference value :  2.75001e-05
 Reference value :  2.75003e-05
 Reference value :  2.75008e-05
 Reference value :  2.75016e-05
 Reference value :  2.75024e-05
 Reference value :  2.75029e-05
 Reference value :  2.75039e-05
 Reference value :  2.75048e-05
 Reference value :  2.75059e-05
 Reference value :  2.75076e-05
 Reference value :  2.75093e-05
 Reference value :  2.75102e-05
 Reference value :  2.75119e-05
 Reference value :  2.75136e-05
 Reference value :  2.75154e-05
 Reference value :  2.75175e-05
 Reference value :  2.75247e-05
 Reference value :  2.75928e-05
 Reference value :  2.77363e-05
 Reference value :  2.77501e-05
 Reference value :  2.77502e-05
 Reference value :  2.77502e-05
 Reference value :  2.77503e-05
 Reference value :  2.77504e-05
 Reference value :  2.77510e-05
 Reference value :  2.77514e-05
 Reference value :  2.77523e-05
 Reference value :  2.77530e-05
 Reference value :  2.77534e-05
 Reference value :  2.77546e-05
 Reference value :  2.77560e-05
 Reference value :  2.77590e-05
 Reference value :  2.77728e-05
 Reference value :  2.78168e-05
 Reference value :  2.80000e-05
 Reference value :  2.80002e-05
 Reference value :  2.80009e-05
 Reference value :  2.80015e-05
 Reference value :  2.80023e-05
 Reference value :  2.80028e-05
 Reference value :  2.80039e-05
 Reference value :  2.80046e-05
 Reference value :  2.80060e-05
 Reference value :  2.80074e-05
 Reference value :  2.80102e-05
 Reference value :  2.80219e-05
 Reference value :  2.81838e-05
 Reference value :  2.82501e-05
 Reference value :  2.82502e-05
 Reference value :  2.82504e-05
 Reference value :  2.82514e-05
 Reference value :  2.82530e-05
 Reference value :  2.82540e-05
 Reference value :  2.82550e-05
 Reference value :  2.82566e-05
 Reference value :  2.82596e-05
 Reference value :  2.82673e-05
 Reference value :  2.83782e-05
 Reference value :  2.85000e-05
 Reference value :  2.85001e-05
 Reference value :  2.85002e-05
 Reference value :  2.85008e-05
 Reference value :  2.85016e-05
 Reference value :  2.85024e-05
 Reference value :  2.85034e-05
 Reference value :  2.85044e-05
 Reference value :  2.85053e-05
 Reference value :  2.85066e-05
 Reference value :  2.85084e-05
 Reference value :  2.85102e-05
 Reference value :  2.85119e-05
 Reference value :  2.85136e-05
 Reference value :  2.85154e-05
 Reference value :  2.85174e-05
 Reference value :  2.85312e-05
 Reference value :  2.85913e-05
 Reference value :  2.87015e-05
 Reference value :  2.87501e-05
 Reference value :  2.87502e-05
 Reference value :  2.87504e-05
 Reference value :  2.87514e-05
 Reference value :  2.87530e-05
 Reference value :  2.87540e-05
 Reference value :  2.87553e-05
 Reference value :  2.87575e-05
 Reference value :  2.87618e-05
 Reference value :  2.87874e-05
 Reference value :  2.89929e-05
 Reference value :  2.90001e-05
 Reference value :  2.90005e-05
 Reference value :  2.90009e-05
 Reference value :  2.90015e-05
 Reference value :  2.90029e-05
 Reference value :  2.90040e-05
 Reference value :  2.90056e-05
 Reference value :  2.90072e-05
 Reference value :  2.90088e-05
 Reference value :  2.90108e-05
 Reference value :  2.90245e-05
 Reference value :  2.92501e-05
 Reference value :  2.92502e-05
 Reference value :  2.92502e-05
 Reference value :  2.92504e-05
 Reference value :  2.92510e-05
 Reference value :  2.92519e-05
 Reference value :  2.92530e-05
 Reference value :  2.92534e-05
 Reference value :  2.92545e-05
 Reference value :  2.92558e-05
 Reference value :  2.92584e-05
 Reference value :  2.92637e-05
 Reference value :  2.93200e-05
 Reference value :  2.95000e-05
 Reference value :  2.95001e-05
 Reference value :  2.95003e-05
 Reference value :  2.95012e-05
 Reference value :  2.95020e-05
 Reference value :  2.95029e-05
 Reference value :  2.95039e-05
 Reference value :  2.95048e-05
 Reference value :  2.95066e-05
 Reference value :  2.95084e-05
 Reference value :  2.95102e-05
 Reference value :  2.95119e-05
 Reference value :  2.95136e-05
 Reference value :  2.95153e-05
 Reference value :  2.95174e-05
 Reference value :  2.95209e-05
 Reference value :  2.95402e-05
 Reference value :  2.95893e-05
 Reference value :  2.96010e-05
 Reference value :  2.96203e-05
 Reference value :  2.96550e-05
 Reference value :  2.96943e-05
 Reference value :  2.97332e-05
 Reference value :  2.97501e-05
 Reference value :  2.97502e-05
 Reference value :  2.97503e-05
 Reference value :  2.97507e-05
 Reference value :  2.97514e-05
 Reference value :  2.97523e-05
 Reference value :  2.97534e-05
 Reference value :  2.97546e-05
 Reference value :  2.97573e-05
 Reference value :  2.97650e-05
 Reference value :  2.98036e-05
 Reference value :  2.98764e-05
 Reference value :  3.00000e-05
 Reference value :  3.00001e-05
 Reference value :  3.00002e-05
 Reference value :  3.00005e-05
 Reference value :  3.00012e-05
 Reference value :  3.00019e-05
 Reference value :  3.00028e-05
 Reference value :  3.00039e-05
 Reference value :  3.00054e-05
 Reference value :  3.00060e-05
 Reference value :  3.00075e-05
 Reference value :  3.00092e-05
 Reference value :  3.00114e-05
 Reference value :  3.00221e-05
 Reference value :  3.00789e-05
 Reference value :  3.02501e-05
 Reference value :  3.02502e-05
 Reference value :  3.02503e-05
 Reference value :  3.02507e-05
 Reference value :  3.02514e-05
 Reference value :  3.02523e-05
 Reference value :  3.02534e-05
 Reference value :  3.02545e-05
 Reference value :  3.02558e-05
 Reference value :  3.02575e-05
 Reference value :  3.02596e-05
 Reference value :  3.02747e-05
 Reference value :  3.04967e-05
 Reference value :  3.05001e-05
 Reference value :  3.05001e-05
 Reference value :  3.05002e-05
 Reference value :  3.05008e-05
 Reference value :  3.05016e-05
 Reference value :  3.05024e-05
 Reference value :  3.05034e-05
 Reference value :  3.05044e-05
 Reference value :  3.05054e-05
 Reference value :  3.05066e-05
 Reference value :  3.05076e-05
 Reference value :  3.05093e-05
 Reference value :  3.05101e-05
 Reference value :  3.05120e-05
 Reference value :  3.05147e-05
 Reference value :  3.05181e-05
 Reference value :  3.05259e-05
 Reference value :  3.05336e-05
 Reference value :  3.05366e-05
 Reference value :  3.05448e-05
 Reference value :  3.05670e-05
 Reference value :  3.06745e-05
 Reference value :  3.07502e-05
 Reference value :  3.07503e-05
 Reference value :  3.07507e-05
 Reference value :  3.07514e-05
 Reference value :  3.07530e-05
 Reference value :  3.07540e-05
 Reference value :  3.07552e-05
 Reference value :  3.07589e-05
 Reference value :  3.08152e-05
 Reference value :  3.10000e-05
 Reference value :  3.10002e-05
 Reference value :  3.10008e-05
 Reference value :  3.10020e-05
 Reference value :  3.10029e-05
 Reference value :  3.10047e-05
 Reference value :  3.10062e-05
 Reference value :  3.10077e-05
 Reference value :  3.10109e-05
 Reference value :  3.10205e-05
 Reference value :  3.11541e-05
 Reference value :  3.12502e-05
 Reference value :  3.12503e-05
 Reference value :  3.12510e-05
 Reference value :  3.12519e-05
 Reference value :  3.12530e-05
 Reference value :  3.12540e-05
 Reference value :  3.12558e-05
 Reference value :  3.12635e-05
 Reference value :  3.13563e-05
 Reference value :  3.15001e-05
 Reference value :  3.15002e-05
 Reference value :  3.15005e-05
 Reference value :  3.15012e-05
 Reference value :  3.15020e-05
 Reference value :  3.15029e-05
 Reference value :  3.15045e-05
 Reference value :  3.15055e-05
 Reference value :  3.15085e-05
 Reference value :  3.15112e-05
 Reference value :  3.15132e-05
 Reference value :  3.15152e-05
 Reference value :  3.15174e-05
 Reference value :  3.15240e-05
 Reference value :  3.15586e-05
 Reference value :  3.17501e-05
 Reference value :  3.17502e-05
 Reference value :  3.17502e-05
 Reference value :  3.17504e-05
 Reference value :  3.17514e-05
 Reference value :  3.17530e-05
 Reference value :  3.17535e-05
 Reference value :  3.17546e-05
 Reference value :  3.17560e-05
 Reference value :  3.17652e-05
 Reference value :  3.20000e-05
 Reference value :  3.20001e-05
 Reference value :  3.20005e-05
 Reference value :  3.20016e-05
 Reference value :  3.20034e-05
 Reference value :  3.20062e-05
 Reference value :  3.20087e-05
 Reference value :  3.20295e-05
 Reference value :  3.22501e-05
 Reference value :  3.22503e-05
 Reference value :  3.22514e-05
 Reference value :  3.22534e-05
 Reference value :  3.22545e-05
 Reference value :  3.22566e-05
 Reference value :  3.22824e-05
 Reference value :  3.25000e-05
 Reference value :  3.25001e-05
 Reference value :  3.25005e-05
 Reference value :  3.25016e-05
 Reference value :  3.25029e-05
 Reference value :  3.25045e-05
 Reference value :  3.25063e-05
 Reference value :  3.25112e-05
 Reference value :  3.25143e-05
 Reference value :  3.25174e-05
 Reference value :  3.25364e-05
 Reference value :  3.27501e-05
 Reference value :  3.27503e-05
 Reference value :  3.27514e-05
 Reference value :  3.27530e-05
 Reference value :  3.27540e-05
 Reference value :  3.27552e-05
 Reference value :  3.27589e-05
 Reference value :  3.27866e-05
 Reference value :  3.30000e-05
 Reference value :  3.30001e-05
 Reference value :  3.30002e-05
 Reference value :  3.30008e-05
 Reference value :  3.30016e-05
 Reference value :  3.30029e-05
 Reference value :  3.30047e-05
 Reference value :  3.30062e-05
 Reference value :  3.30077e-05
 Reference value :  3.30109e-05
 Reference value :  3.30295e-05
 Reference value :  3.31520e-05
 Reference value :  3.32501e-05
 Reference value :  3.32502e-05
 Reference value :  3.32504e-05
 Reference value :  3.32514e-05
 Reference value :  3.32530e-05
 Reference value :  3.32534e-05
 Reference value :  3.32545e-05
 Reference value :  3.32558e-05
 Reference value :  3.32636e-05
 Reference value :  3.33571e-05
 Reference value :  3.35007e-05
 Reference value :  3.35030e-05
 Reference value :  3.35043e-05
 Reference value :  3.35055e-05
 Reference value :  3.35078e-05
 Reference value :  3.35095e-05
 Reference value :  3.35228e-05
 Reference value :  3.36150e-05
 Reference value :  3.37501e-05
 Reference value :  3.37502e-05
 Reference value :  3.37502e-05
 Reference value :  3.37503e-05
 Reference value :  3.37504e-05
 Reference value :  3.37510e-05
 Reference value :  3.37514e-05
 Reference value :  3.37519e-05
 Reference value :  3.37529e-05
 Reference value :  3.37545e-05
 Reference value :  3.37553e-05
 Reference value :  3.37576e-05
 Reference value :  3.37657e-05
 Reference value :  3.38875e-05
 Reference value :  3.40000e-05
 Reference value :  3.40001e-05
 Reference value :  3.40002e-05
 Reference value :  3.40009e-05
 Reference value :  3.40018e-05
 Reference value :  3.40028e-05
 Reference value :  3.40034e-05
 Reference value :  3.40044e-05
 Reference value :  3.40055e-05
 Reference value :  3.40074e-05
 Reference value :  3.40165e-05
 Reference value :  3.40217e-05
 Reference value :  3.40258e-05
 Reference value :  3.40287e-05
 Reference value :  3.40317e-05
 Reference value :  3.40339e-05
 Reference value :  3.40357e-05
 Reference value :  3.40370e-05
 Reference value :  3.40388e-05
 Reference value :  3.40423e-05
 Reference value :  3.40501e-05
 Reference value :  3.40555e-05
 Reference value :  3.40611e-05
 Reference value :  3.40739e-05
 Reference value :  3.40922e-05
 Reference value :  3.42501e-05
 Reference value :  3.42502e-05
 Reference value :  3.42503e-05
 Reference value :  3.42507e-05
 Reference value :  3.42514e-05
 Reference value :  3.42530e-05
 Reference value :  3.42539e-05
 Reference value :  3.42552e-05
 Reference value :  3.42573e-05
 Reference value :  3.42648e-05
 Reference value :  3.43653e-05
 Reference value :  3.45000e-05
 Reference value :  3.45001e-05
 Reference value :  3.45002e-05
 Reference value :  3.45008e-05
 Reference value :  3.45019e-05
 Reference value :  3.45028e-05
 Reference value :  3.45046e-05
 Reference value :  3.45064e-05
 Reference value :  3.45088e-05
 Reference value :  3.45112e-05
 Reference value :  3.45124e-05
 Reference value :  3.45154e-05
 Reference value :  3.45334e-05
 Reference value :  3.47501e-05
 Reference value :  3.47502e-05
 Reference value :  3.47503e-05
 Reference value :  3.47510e-05
 Reference value :  3.47519e-05
 Reference value :  3.47530e-05
 Reference value :  3.47540e-05
 Reference value :  3.47550e-05
 Reference value :  3.47566e-05
 Reference value :  3.47596e-05
 Reference value :  3.47666e-05
 Reference value :  3.48058e-05
 Reference value :  3.50000e-05
 Reference value :  3.50001e-05
 Reference value :  3.50002e-05
 Reference value :  3.50003e-05
 Reference value :  3.50008e-05
 Reference value :  3.50016e-05
 Reference value :  3.50024e-05
 Reference value :  3.50029e-05
 Reference value :  3.50039e-05
 Reference value :  3.50048e-05
 Reference value :  3.50059e-05
 Reference value :  3.50076e-05
 Reference value :  3.50084e-05
 Reference value :  3.50093e-05
 Reference value :  3.50102e-05
 Reference value :  3.50111e-05
 Reference value :  3.50119e-05
 Reference value :  3.50136e-05
 Reference value :  3.50154e-05
 Reference value :  3.50164e-05
 Reference value :  3.50192e-05
 Reference value :  3.50247e-05
 Reference value :  3.50646e-05
 Reference value :  3.51658e-05
 Reference value :  3.52501e-05
 Reference value :  3.52502e-05
 Reference value :  3.52502e-05
 Reference value :  3.52504e-05
 Reference value :  3.52514e-05
 Reference value :  3.52523e-05
 Reference value :  3.52534e-05
 Reference value :  3.52553e-05
 Reference value :  3.52590e-05
 Reference value :  3.52728e-05
 Reference value :  3.53757e-05
 Reference value :  3.55000e-05
 Reference value :  3.55001e-05
 Reference value :  3.55002e-05
 Reference value :  3.55003e-05
 Reference value :  3.55008e-05
 Reference value :  3.55015e-05
 Reference value :  3.55023e-05
 Reference value :  3.55028e-05
 Reference value :  3.55033e-05
 Reference value :  3.55046e-05
 Reference value :  3.55060e-05
 Reference value :  3.55075e-05
 Reference value :  3.55092e-05
 Reference value :  3.55103e-05
 Reference value :  3.55167e-05
 Reference value :  3.55474e-05
 Reference value :  3.57501e-05
 Reference value :  3.57502e-05
 Reference value :  3.57502e-05
 Reference value :  3.57504e-05
 Reference value :  3.57514e-05
 Reference value :  3.57523e-05
 Reference value :  3.57534e-05
 Reference value :  3.57545e-05
 Reference value :  3.57558e-05
 Reference value :  3.57583e-05
 Reference value :  3.57610e-05
 Reference value :  3.57747e-05
 Reference value :  3.59970e-05
 Reference value :  3.60001e-05
 Reference value :  3.60001e-05
 Reference value :  3.60002e-05
 Reference value :  3.60005e-05
 Reference value :  3.60016e-05
 Reference value :  3.60024e-05
 Reference value :  3.60039e-05
 Reference value :  3.60048e-05
 Reference value :  3.60066e-05
 Reference value :  3.60084e-05
 Reference value :  3.60102e-05
 Reference value :  3.60119e-05
 Reference value :  3.60136e-05
 Reference value :  3.60153e-05
 Reference value :  3.60174e-05
 Reference value :  3.60308e-05
 Reference value :  3.61323e-05
 Reference value :  3.62501e-05
 Reference value :  3.62502e-05
 Reference value :  3.62504e-05
 Reference value :  3.62510e-05
 Reference value :  3.62519e-05
 Reference value :  3.62530e-05
 Reference value :  3.62540e-05
 Reference value :  3.62553e-05
 Reference value :  3.62590e-05
 Reference value :  3.62728e-05
 Reference value :  3.63756e-05
 Reference value :  3.65000e-05
 Reference value :  3.65001e-05
 Reference value :  3.65001e-05
 Reference value :  3.65002e-05
 Reference value :  3.65005e-05
 Reference value :  3.65012e-05
 Reference value :  3.65015e-05
 Reference value :  3.65023e-05
 Reference value :  3.65028e-05
 Reference value :  3.65039e-05
 Reference value :  3.65054e-05
 Reference value :  3.65060e-05
 Reference value :  3.65075e-05
 Reference value :  3.65092e-05
 Reference value :  3.65114e-05
 Reference value :  3.65315e-05
 Reference value :  3.66422e-05
 Reference value :  3.67501e-05
 Reference value :  3.67502e-05
 Reference value :  3.67503e-05
 Reference value :  3.67507e-05
 Reference value :  3.67514e-05
 Reference value :  3.67523e-05
 Reference value :  3.67534e-05
 Reference value :  3.67545e-05
 Reference value :  3.67558e-05
 Reference value :  3.67575e-05
 Reference value :  3.67596e-05
 Reference value :  3.67748e-05
 Reference value :  3.69974e-05
 Reference value :  3.70001e-05
 Reference value :  3.70002e-05
 Reference value :  3.70008e-05
 Reference value :  3.70020e-05
 Reference value :  3.70029e-05
 Reference value :  3.70044e-05
 Reference value :  3.70059e-05
 Reference value :  3.70084e-05
 Reference value :  3.70102e-05
 Reference value :  3.70119e-05
 Reference value :  3.70136e-05
 Reference value :  3.70164e-05
 Reference value :  3.70245e-05
 Reference value :  3.70913e-05
 Reference value :  3.72393e-05
 Reference value :  3.72502e-05
 Reference value :  3.72503e-05
 Reference value :  3.72510e-05
 Reference value :  3.72519e-05
 Reference value :  3.72530e-05
 Reference value :  3.72540e-05
 Reference value :  3.72560e-05
 Reference value :  3.72654e-05
 Reference value :  3.73755e-05
 Reference value :  3.75000e-05
 Reference value :  3.75001e-05
 Reference value :  3.75003e-05
 Reference value :  3.75012e-05
 Reference value :  3.75019e-05
 Reference value :  3.75033e-05
 Reference value :  3.75054e-05
 Reference value :  3.75066e-05
 Reference value :  3.75084e-05
 Reference value :  3.75114e-05
 Reference value :  3.75474e-05
 Reference value :  3.77501e-05
 Reference value :  3.77502e-05
 Reference value :  3.77504e-05
 Reference value :  3.77514e-05
 Reference value :  3.77530e-05
 Reference value :  3.77540e-05
 Reference value :  3.77550e-05
 Reference value :  3.77566e-05
 Reference value :  3.77596e-05
 Reference value :  3.77747e-05
 Reference value :  3.79971e-05
 Reference value :  3.80000e-05
 Reference value :  3.80001e-05
 Reference value :  3.80002e-05
 Reference value :  3.80008e-05
 Reference value :  3.80016e-05
 Reference value :  3.80024e-05
 Reference value :  3.80034e-05
 Reference value :  3.80044e-05
 Reference value :  3.80053e-05
 Reference value :  3.80076e-05
 Reference value :  3.80093e-05
 Reference value :  3.80102e-05
 Reference value :  3.80119e-05
 Reference value :  3.80136e-05
 Reference value :  3.80153e-05
 Reference value :  3.80174e-05
 Reference value :  3.80244e-05
 Reference value :  3.80736e-05
 Reference value :  3.81003e-05
 Reference value :  3.81096e-05
 Reference value :  3.81459e-05
 Reference value :  3.81962e-05
 Reference value :  3.82501e-05
 Reference value :  3.82501e-05
 Reference value :  3.82502e-05
 Reference value :  3.82503e-05
 Reference value :  3.82507e-05
 Reference value :  3.82514e-05
 Reference value :  3.82530e-05
 Reference value :  3.82539e-05
 Reference value :  3.82559e-05
 Reference value :  3.82649e-05
 Reference value :  3.83402e-05
 Reference value :  3.84295e-05
 Reference value :  3.85001e-05
 Reference value :  3.85001e-05
 Reference value :  3.85001e-05
 Reference value :  3.85005e-05
 Reference value :  3.85015e-05
 Reference value :  3.85028e-05
 Reference value :  3.85038e-05
 Reference value :  3.85053e-05
 Reference value :  3.85059e-05
 Reference value :  3.85074e-05
 Reference value :  3.85101e-05
 Reference value :  3.85167e-05
 Reference value :  3.85896e-05
 Reference value :  3.87501e-05
 Reference value :  3.87502e-05
 Reference value :  3.87504e-05
 Reference value :  3.87510e-05
 Reference value :  3.87523e-05
 Reference value :  3.87534e-05
 Reference value :  3.87545e-05
 Reference value :  3.87566e-05
 Reference value :  3.87596e-05
 Reference value :  3.88180e-05
 Reference value :  3.90000e-05
 Reference value :  3.90001e-05
 Reference value :  3.90003e-05
 Reference value :  3.90016e-05
 Reference value :  3.90029e-05
 Reference value :  3.90044e-05
 Reference value :  3.90053e-05
 Reference value :  3.90076e-05
 Reference value :  3.90102e-05
 Reference value :  3.90119e-05
 Reference value :  3.90154e-05
 Reference value :  3.90213e-05
 Reference value :  3.90324e-05
 Reference value :  3.90354e-05
 Reference value :  3.90437e-05
 Reference value :  3.90777e-05
 Reference value :  3.92501e-05
 Reference value :  3.92502e-05
 Reference value :  3.92504e-05
 Reference value :  3.92514e-05
 Reference value :  3.92523e-05
 Reference value :  3.92534e-05
 Reference value :  3.92546e-05
 Reference value :  3.92574e-05
 Reference value :  3.92723e-05
 Reference value :  3.93724e-05
 Reference value :  3.95000e-05
 Reference value :  3.95001e-05
 Reference value :  3.95001e-05
 Reference value :  3.95002e-05
 Reference value :  3.95012e-05
 Reference value :  3.95020e-05
 Reference value :  3.95029e-05
 Reference value :  3.95047e-05
 Reference value :  3.95062e-05
 Reference value :  3.95077e-05
 Reference value :  3.95109e-05
 Reference value :  3.95296e-05
 Reference value :  3.97501e-05
 Reference value :  3.97502e-05
 Reference value :  3.97502e-05
 Reference value :  3.97504e-05
 Reference value :  3.97514e-05
 Reference value :  3.97530e-05
 Reference value :  3.97540e-05
 Reference value :  3.97550e-05
 Reference value :  3.97582e-05
 Reference value :  3.98069e-05
 Reference value :  4.00001e-05
 Reference value :  4.00002e-05
 Reference value :  4.00012e-05
 Reference value :  4.00024e-05
 Reference value :  4.00040e-05
 Reference value :  4.00055e-05
 Reference value :  4.00100e-05
 Reference value :  4.00122e-05
 Reference value :  4.00152e-05
 Reference value :  4.00239e-05
 Reference value :  4.01154e-05
 Reference value :  4.02502e-05
 Reference value :  4.02504e-05
 Reference value :  4.02514e-05
 Reference value :  4.02530e-05
 Reference value :  4.02546e-05
 Reference value :  4.02589e-05
 Reference value :  4.03157e-05
 Reference value :  4.05000e-05
 Reference value :  4.05001e-05
 Reference value :  4.05008e-05
 Reference value :  4.05024e-05
 Reference value :  4.05040e-05
 Reference value :  4.05062e-05
 Reference value :  4.05087e-05
 Reference value :  4.05295e-05
 Reference value :  4.07501e-05
 Reference value :  4.07503e-05
 Reference value :  4.07514e-05
 Reference value :  4.07534e-05
 Reference value :  4.07545e-05
 Reference value :  4.07558e-05
 Reference value :  4.07636e-05
 Reference value :  4.08572e-05
 Reference value :  4.10007e-05
 Reference value :  4.10029e-05
 Reference value :  4.10043e-05
 Reference value :  4.10055e-05
 Reference value :  4.10093e-05
 Reference value :  4.10120e-05
 Reference value :  4.10140e-05
 Reference value :  4.10174e-05
 Reference value :  4.10333e-05
 Reference value :  4.12501e-05
 Reference value :  4.12502e-05
 Reference value :  4.12503e-05
 Reference value :  4.12510e-05
 Reference value :  4.12519e-05
 Reference value :  4.12529e-05
 Reference value :  4.12539e-05
 Reference value :  4.12551e-05
 Reference value :  4.12610e-05
 Reference value :  4.13081e-05
 Reference value :  4.15000e-05
 Reference value :  4.15001e-05
 Reference value :  4.15002e-05
 Reference value :  4.15005e-05
 Reference value :  4.15012e-05
 Reference value :  4.15020e-05
 Reference value :  4.15029e-05
 Reference value :  4.15040e-05
 Reference value :  4.15055e-05
 Reference value :  4.15062e-05
 Reference value :  4.15077e-05
 Reference value :  4.15095e-05
 Reference value :  4.15154e-05
 Reference value :  4.15459e-05
 Reference value :  4.17501e-05
 Reference value :  4.17502e-05
 Reference value :  4.17503e-05
 Reference value :  4.17510e-05
 Reference value :  4.17519e-05
 Reference value :  4.17530e-05
 Reference value :  4.17540e-05
 Reference value :  4.17550e-05
 Reference value :  4.17566e-05
 Reference value :  4.17636e-05
 Reference value :  4.18077e-05
 Reference value :  4.20000e-05
 Reference value :  4.20001e-05
 Reference value :  4.20001e-05
 Reference value :  4.20003e-05
 Reference value :  4.20008e-05
 Reference value :  4.20016e-05
 Reference value :  4.20029e-05
 Reference value :  4.20045e-05
 Reference value :  4.20056e-05
 Reference value :  4.20072e-05
 Reference value :  4.20088e-05
 Reference value :  4.20156e-05
 Reference value :  4.20646e-05
 Reference value :  4.22501e-05
 Reference value :  4.22502e-05
 Reference value :  4.22503e-05
 Reference value :  4.22510e-05
 Reference value :  4.22519e-05
 Reference value :  4.22536e-05
 Reference value :  4.22562e-05
 Reference value :  4.22662e-05
 Reference value :  4.23821e-05
 Reference value :  4.25001e-05
 Reference value :  4.25002e-05
 Reference value :  4.25006e-05
 Reference value :  4.25014e-05
 Reference value :  4.25028e-05
 Reference value :  4.25039e-05
 Reference value :  4.25049e-05
 Reference value :  4.25061e-05
 Reference value :  4.25117e-05
 Reference value :  4.25217e-05
 Reference value :  4.25258e-05
 Reference value :  4.25287e-05
 Reference value :  4.25317e-05
 Reference value :  4.25339e-05
 Reference value :  4.25370e-05
 Reference value :  4.25388e-05
 Reference value :  4.25446e-05
 Reference value :  4.25546e-05
 Reference value :  4.25611e-05
 Reference value :  4.25679e-05
 Reference value :  4.25796e-05
 Reference value :  4.26136e-05
 Reference value :  4.27501e-05
 Reference value :  4.27502e-05
 Reference value :  4.27502e-05
 Reference value :  4.27504e-05
 Reference value :  4.27510e-05
 Reference value :  4.27514e-05
 Reference value :  4.27530e-05
 Reference value :  4.27539e-05
 Reference value :  4.27559e-05
 Reference value :  4.27647e-05
 Reference value :  4.28650e-05
 Reference value :  4.30000e-05
 Reference value :  4.30001e-05
 Reference value :  4.30005e-05
 Reference value :  4.30012e-05
 Reference value :  4.30019e-05
 Reference value :  4.30028e-05
 Reference value :  4.30039e-05
 Reference value :  4.30064e-05
 Reference value :  4.30088e-05
 Reference value :  4.30112e-05
 Reference value :  4.30124e-05
 Reference value :  4.30154e-05
 Reference value :  4.30255e-05
 Reference value :  4.30790e-05
 Reference value :  4.32501e-05
 Reference value :  4.32502e-05
 Reference value :  4.32503e-05
 Reference value :  4.32507e-05
 Reference value :  4.32514e-05
 Reference value :  4.32530e-05
 Reference value :  4.32540e-05
 Reference value :  4.32550e-05
 Reference value :  4.32558e-05
 Reference value :  4.32582e-05
 Reference value :  4.32635e-05
 Reference value :  4.33056e-05
 Reference value :  4.35000e-05
 Reference value :  4.35011e-05
 Reference value :  4.35043e-05
 Reference value :  4.35063e-05
 Reference value :  4.35091e-05
 Reference value :  4.35108e-05
 Reference value :  4.35124e-05
 Reference value :  4.35138e-05
 Reference value :  4.35163e-05
 Reference value :  4.35187e-05
 Reference value :  4.35282e-05
 Reference value :  4.35756e-05
 Reference value :  4.37501e-05
 Reference value :  4.37502e-05
 Reference value :  4.37502e-05
 Reference value :  4.37504e-05
 Reference value :  4.37510e-05
 Reference value :  4.37519e-05
 Reference value :  4.37529e-05
 Reference value :  4.37533e-05
 Reference value :  4.37543e-05
 Reference value :  4.37567e-05
 Reference value :  4.37688e-05
 Reference value :  4.38495e-05
 Reference value :  4.40000e-05
 Reference value :  4.40001e-05
 Reference value :  4.40002e-05
 Reference value :  4.40005e-05
 Reference value :  4.40012e-05
 Reference value :  4.40019e-05
 Reference value :  4.40028e-05
 Reference value :  4.40039e-05
 Reference value :  4.40054e-05
 Reference value :  4.40060e-05
 Reference value :  4.40075e-05
 Reference value :  4.40092e-05
 Reference value :  4.40114e-05
 Reference value :  4.40221e-05
 Reference value :  4.40788e-05
 Reference value :  4.42501e-05
 Reference value :  4.42502e-05
 Reference value :  4.42503e-05
 Reference value :  4.42507e-05
 Reference value :  4.42514e-05
 Reference value :  4.42523e-05
 Reference value :  4.42534e-05
 Reference value :  4.42545e-05
 Reference value :  4.42558e-05
 Reference value :  4.42597e-05
 Reference value :  4.42675e-05
 Reference value :  4.43205e-05
 Reference value :  4.45000e-05
 Reference value :  4.45001e-05
 Reference value :  4.45002e-05
 Reference value :  4.45005e-05
 Reference value :  4.45012e-05
 Reference value :  4.45020e-05
 Reference value :  4.45034e-05
 Reference value :  4.45048e-05
 Reference value :  4.45076e-05
 Reference value :  4.45102e-05
 Reference value :  4.45127e-05
 Reference value :  4.45154e-05
 Reference value :  4.45247e-05
 Reference value :  4.47355e-05
 Reference value :  4.47502e-05
 Reference value :  4.47507e-05
 Reference value :  4.47519e-05
 Reference value :  4.47534e-05
 Reference value :  4.47553e-05
 Reference value :  4.47618e-05
 Reference value :  4.48756e-05
 Reference value :  4.50001e-05
 Reference value :  4.50002e-05
 Reference value :  4.50012e-05
 Reference value :  4.50023e-05
 Reference value :  4.50039e-05
 Reference value :  4.50060e-05
 Reference value :  4.50084e-05
 Reference value :  4.50136e-05
 Reference value :  4.51422e-05
 Reference value :  4.52502e-05
 Reference value :  4.52503e-05
 Reference value :  4.52510e-05
 Reference value :  4.52519e-05
 Reference value :  4.52534e-05
 Reference value :  4.52550e-05
 Reference value :  4.52566e-05
 Reference value :  4.52596e-05
 Reference value :  4.52747e-05
 Reference value :  4.54970e-05
 Reference value :  4.55000e-05
 Reference value :  4.55001e-05
 Reference value :  4.55003e-05
 Reference value :  4.55008e-05
 Reference value :  4.55016e-05
 Reference value :  4.55024e-05
 Reference value :  4.55034e-05
 Reference value :  4.55048e-05
 Reference value :  4.55066e-05
 Reference value :  4.55084e-05
 Reference value :  4.55102e-05
 Reference value :  4.55119e-05
 Reference value :  4.55136e-05
 Reference value :  4.55164e-05
 Reference value :  4.55245e-05
 Reference value :  4.55912e-05
 Reference value :  4.57068e-05
 Reference value :  4.57501e-05
 Reference value :  4.57502e-05
 Reference value :  4.57503e-05
 Reference value :  4.57510e-05
 Reference value :  4.57519e-05
 Reference value :  4.57530e-05
 Reference value :  4.57540e-05
 Reference value :  4.57560e-05
 Reference value :  4.57654e-05
 Reference value :  4.58755e-05
 Reference value :  4.60001e-05
 Reference value :  4.60005e-05
 Reference value :  4.60015e-05
 Reference value :  4.60029e-05
 Reference value :  4.60048e-05
 Reference value :  4.60064e-05
 Reference value :  4.60088e-05
 Reference value :  4.60129e-05
 Reference value :  4.60706e-05
 Reference value :  4.62502e-05
 Reference value :  4.62503e-05
 Reference value :  4.62507e-05
 Reference value :  4.62514e-05
 Reference value :  4.62530e-05
 Reference value :  4.62540e-05
 Reference value :  4.62558e-05
 Reference value :  4.62584e-05
 Reference value :  4.62637e-05
 Reference value :  4.63802e-05
 Reference value :  4.65001e-05
 Reference value :  4.65002e-05
 Reference value :  4.65005e-05
 Reference value :  4.65016e-05
 Reference value :  4.65029e-05
 Reference value :  4.65044e-05
 Reference value :  4.65053e-05
 Reference value :  4.65076e-05
 Reference value :  4.65093e-05
 Reference value :  4.65111e-05
 Reference value :  4.65127e-05
 Reference value :  4.65145e-05
 Reference value :  4.65164e-05
 Reference value :  4.65209e-05
 Reference value :  4.65559e-05
 Reference value :  4.65981e-05
 Reference value :  4.66159e-05
 Reference value :  4.66644e-05
 Reference value :  4.67501e-05
 Reference value :  4.67502e-05
 Reference value :  4.67502e-05
 Reference value :  4.67504e-05
 Reference value :  4.67514e-05
 Reference value :  4.67530e-05
 Reference value :  4.67539e-05
 Reference value :  4.67560e-05
 Reference value :  4.67615e-05
 Reference value :  4.67861e-05
 Reference value :  4.68706e-05
 Reference value :  4.69164e-05
 Reference value :  4.70000e-05
 Reference value :  4.70001e-05
 Reference value :  4.70002e-05
 Reference value :  4.70005e-05
 Reference value :  4.70012e-05
 Reference value :  4.70019e-05
 Reference value :  4.70028e-05
 Reference value :  4.70039e-05
 Reference value :  4.70054e-05
 Reference value :  4.70060e-05
 Reference value :  4.70075e-05
 Reference value :  4.70092e-05
 Reference value :  4.70114e-05
 Reference value :  4.70315e-05
 Reference value :  4.71416e-05
 Reference value :  4.72501e-05
 Reference value :  4.72502e-05
 Reference value :  4.72503e-05
 Reference value :  4.72510e-05
 Reference value :  4.72519e-05
 Reference value :  4.72530e-05
 Reference value :  4.72534e-05
 Reference value :  4.72545e-05
 Reference value :  4.72558e-05
 Reference value :  4.72583e-05
 Reference value :  4.72636e-05
 Reference value :  4.73190e-05
 Reference value :  4.75000e-05
 Reference value :  4.75001e-05
 Reference value :  4.75002e-05
 Reference value :  4.75008e-05
 Reference value :  4.75016e-05
 Reference value :  4.75024e-05
 Reference value :  4.75039e-05
 Reference value :  4.75048e-05
 Reference value :  4.75066e-05
 Reference value :  4.75084e-05
 Reference value :  4.75101e-05
 Reference value :  4.75119e-05
 Reference value :  4.75136e-05
 Reference value :  4.75154e-05
 Reference value :  4.75194e-05
 Reference value :  4.75295e-05
 Reference value :  4.75345e-05
 Reference value :  4.75413e-05
 Reference value :  4.75537e-05
 Reference value :  4.76046e-05
 Reference value :  4.77182e-05
 Reference value :  4.77501e-05
 Reference value :  4.77502e-05
 Reference value :  4.77503e-05
 Reference value :  4.77507e-05
 Reference value :  4.77514e-05
 Reference value :  4.77530e-05
 Reference value :  4.77540e-05
 Reference value :  4.77552e-05
 Reference value :  4.77589e-05
 Reference value :  4.77866e-05
 Reference value :  4.80000e-05
 Reference value :  4.80001e-05
 Reference value :  4.80001e-05
 Reference value :  4.80003e-05
 Reference value :  4.80008e-05
 Reference value :  4.80016e-05
 Reference value :  4.80029e-05
 Reference value :  4.80040e-05
 Reference value :  4.80055e-05
 Reference value :  4.80062e-05
 Reference value :  4.80077e-05
 Reference value :  4.80109e-05
 Reference value :  4.80296e-05
 Reference value :  4.82501e-05
 Reference value :  4.82502e-05
 Reference value :  4.82502e-05
 Reference value :  4.82504e-05
 Reference value :  4.82510e-05
 Reference value :  4.82519e-05
 Reference value :  4.82530e-05
 Reference value :  4.82534e-05
 Reference value :  4.82545e-05
 Reference value :  4.82558e-05
 Reference value :  4.82603e-05
 Reference value :  4.82821e-05
 Reference value :  4.84555e-05
 Reference value :  4.85000e-05
 Reference value :  4.85001e-05
 Reference value :  4.85003e-05
 Reference value :  4.85008e-05
 Reference value :  4.85020e-05
 Reference value :  4.85029e-05
 Reference value :  4.85045e-05
 Reference value :  4.85055e-05
 Reference value :  4.85100e-05
 Reference value :  4.85122e-05
 Reference value :  4.85143e-05
 Reference value :  4.85163e-05
 Reference value :  4.85207e-05
 Reference value :  4.85458e-05
 Reference value :  4.86802e-05
 Reference value :  4.87502e-05
 Reference value :  4.87503e-05
 Reference value :  4.87507e-05
 Reference value :  4.87514e-05
 Reference value :  4.87530e-05
 Reference value :  4.87546e-05
 Reference value :  4.87574e-05
 Reference value :  4.87724e-05
 Reference value :  4.90000e-05
 Reference value :  4.90001e-05
 Reference value :  4.90002e-05
 Reference value :  4.90008e-05
 Reference value :  4.90016e-05
 Reference value :  4.90029e-05
 Reference value :  4.90047e-05
 Reference value :  4.90062e-05
 Reference value :  4.90087e-05
 Reference value :  4.90205e-05
 Reference value :  4.92501e-05
 Reference value :  4.92502e-05
 Reference value :  4.92503e-05
 Reference value :  4.92514e-05
 Reference value :  4.92534e-05
 Reference value :  4.92550e-05
 Reference value :  4.92603e-05
 Reference value :  4.94570e-05
 Reference value :  4.95001e-05
 Reference value :  4.95002e-05
 Reference value :  4.95008e-05
[...]
 Reference value :  2.60515e-04
 Reference value :  2.60652e-04
 Reference value :  2.60750e-04
 Reference value :  2.60750e-04
 Reference value :  2.60750e-04
 Reference value :  2.60751e-04
 Reference value :  2.60753e-04
 Reference value :  2.60754e-04
 Reference value :  2.60755e-04
 Reference value :  2.60757e-04
 Reference value :  2.60770e-04
 Reference value :  2.60957e-04
 Reference value :  2.61000e-04
 Reference value :  2.61000e-04
 Reference value :  2.61000e-04
 Reference value :  2.61001e-04
 Reference value :  2.61002e-04
 Reference value :  2.61002e-04
 Reference value :  2.61003e-04
 Reference value :  2.61004e-04
 Reference value :  2.61006e-04
 Reference value :  2.61007e-04
 Reference value :  2.61010e-04
 Reference value :  2.61011e-04
 Reference value :  2.61013e-04
 Reference value :  2.61015e-04
 Reference value :  2.61017e-04
 Reference value :  2.61024e-04
 Reference value :  2.61059e-04
 Reference value :  2.61250e-04
 Reference value :  2.61250e-04
 Reference value :  2.61250e-04
 Reference value :  2.61251e-04
 Reference value :  2.61252e-04
 Reference value :  2.61253e-04
 Reference value :  2.61255e-04
 Reference value :  2.61257e-04
 Reference value :  2.61287e-04
 Reference value :  2.61500e-04
 Reference value :  2.61500e-04
 Reference value :  2.61500e-04
 Reference value :  2.61500e-04
 Reference value :  2.61501e-04
 Reference value :  2.61502e-04
 Reference value :  2.61503e-04
 Reference value :  2.61505e-04
 Reference value :  2.61506e-04
 Reference value :  2.61508e-04
 Reference value :  2.61510e-04
 Reference value :  2.61515e-04
 Reference value :  2.61547e-04
 Reference value :  2.61750e-04
 Reference value :  2.61750e-04
 Reference value :  2.61750e-04
 Reference value :  2.61751e-04
 Reference value :  2.61752e-04
 Reference value :  2.61753e-04
 Reference value :  2.61753e-04
 Reference value :  2.61754e-04
 Reference value :  2.61756e-04
 Reference value :  2.61760e-04
 Reference value :  2.61782e-04
 Reference value :  2.62000e-04
 Reference value :  2.62000e-04
 Reference value :  2.62000e-04
 Reference value :  2.62000e-04
 Reference value :  2.62000e-04
 Reference value :  2.62001e-04
 Reference value :  2.62002e-04
 Reference value :  2.62002e-04
 Reference value :  2.62003e-04
 Reference value :  2.62004e-04
 Reference value :  2.62005e-04
 Reference value :  2.62006e-04
 Reference value :  2.62008e-04
 Reference value :  2.62011e-04
 Reference value :  2.62013e-04
 Reference value :  2.62015e-04
 Reference value :  2.62019e-04
 Reference value :  2.62036e-04
 Reference value :  2.62207e-04
 Reference value :  2.62250e-04
 Reference value :  2.62250e-04
 Reference value :  2.62250e-04
 Reference value :  2.62251e-04
 Reference value :  2.62253e-04
 Reference value :  2.62254e-04
 Reference value :  2.62255e-04
 Reference value :  2.62265e-04
 Reference value :  2.62373e-04
 Reference value :  2.62500e-04
 Reference value :  2.62500e-04
 Reference value :  2.62500e-04
 Reference value :  2.62501e-04
 Reference value :  2.62502e-04
 Reference value :  2.62503e-04
 Reference value :  2.62505e-04
 Reference value :  2.62506e-04
 Reference value :  2.62508e-04
 Reference value :  2.62512e-04
 Reference value :  2.62547e-04
 Reference value :  2.62750e-04
 Reference value :  2.62750e-04
 Reference value :  2.62750e-04
 Reference value :  2.62751e-04
 Reference value :  2.62752e-04
 Reference value :  2.62753e-04
 Reference value :  2.62754e-04
 Reference value :  2.62756e-04
 Reference value :  2.62760e-04
 Reference value :  2.62782e-04
 Reference value :  2.62956e-04
 Reference value :  2.63000e-04
 Reference value :  2.63000e-04
 Reference value :  2.63000e-04
 Reference value :  2.63001e-04
 Reference value :  2.63001e-04
 Reference value :  2.63002e-04
 Reference value :  2.63003e-04
 Reference value :  2.63004e-04
 Reference value :  2.63005e-04
 Reference value :  2.63006e-04
 Reference value :  2.63008e-04
 Reference value :  2.63010e-04
 Reference value :  2.63037e-04
 Reference value :  2.63250e-04
 Reference value :  2.63250e-04
 Reference value :  2.63250e-04
 Reference value :  2.63250e-04
 Reference value :  2.63251e-04
 Reference value :  2.63251e-04
 Reference value :  2.63252e-04
 Reference value :  2.63253e-04
 Reference value :  2.63254e-04
 Reference value :  2.63255e-04
 Reference value :  2.63258e-04
 Reference value :  2.63262e-04
 Reference value :  2.63275e-04
 Reference value :  2.63382e-04
 Reference value :  2.63500e-04
 Reference value :  2.63500e-04
 Reference value :  2.63500e-04
 Reference value :  2.63501e-04
 Reference value :  2.63501e-04
 Reference value :  2.63503e-04
 Reference value :  2.63504e-04
 Reference value :  2.63505e-04
 Reference value :  2.63509e-04
 Reference value :  2.63522e-04
 Reference value :  2.63526e-04
 Reference value :  2.63529e-04
 Reference value :  2.63534e-04
 Reference value :  2.63537e-04
 Reference value :  2.63539e-04
 Reference value :  2.63542e-04
 Reference value :  2.63551e-04
 Reference value :  2.63566e-04
 Reference value :  2.63573e-04
 Reference value :  2.63583e-04
 Reference value :  2.63587e-04
 Reference value :  2.63590e-04
 Reference value :  2.63597e-04
 Reference value :  2.63607e-04
 Reference value :  2.63619e-04
 Reference value :  2.63634e-04
 Reference value :  2.63667e-04
 Reference value :  2.63750e-04
 Reference value :  2.63750e-04
 Reference value :  2.63750e-04
 Reference value :  2.63750e-04
 Reference value :  2.63750e-04
 Reference value :  2.63751e-04
 Reference value :  2.63751e-04
 Reference value :  2.63752e-04
 Reference value :  2.63753e-04
 Reference value :  2.63755e-04
 Reference value :  2.63757e-04
 Reference value :  2.63765e-04
 Reference value :  2.63812e-04
 Reference value :  2.64000e-04
 Reference value :  2.64000e-04
 Reference value :  2.64000e-04
 Reference value :  2.64000e-04
 Reference value :  2.64001e-04
 Reference value :  2.64002e-04
 Reference value :  2.64002e-04
 Reference value :  2.64003e-04
 Reference value :  2.64004e-04
 Reference value :  2.64006e-04
 Reference value :  2.64009e-04
 Reference value :  2.64011e-04
 Reference value :  2.64014e-04
 Reference value :  2.64017e-04
 Reference value :  2.64049e-04
 Reference value :  2.64250e-04
 Reference value :  2.64250e-04
 Reference value :  2.64250e-04
 Reference value :  2.64251e-04
 Reference value :  2.64251e-04
 Reference value :  2.64252e-04
 Reference value :  2.64253e-04
 Reference value :  2.64254e-04
 Reference value :  2.64256e-04
 Reference value :  2.64257e-04
 Reference value :  2.64261e-04
 Reference value :  2.64273e-04
 Reference value :  2.64348e-04
 Reference value :  2.64500e-04
 Reference value :  2.64500e-04
 Reference value :  2.64500e-04
 Reference value :  2.64501e-04
 Reference value :  2.64502e-04
 Reference value :  2.64503e-04
 Reference value :  2.64504e-04
 Reference value :  2.64505e-04
 Reference value :  2.64507e-04
 Reference value :  2.64508e-04
 Reference value :  2.64510e-04
 Reference value :  2.64512e-04
 Reference value :  2.64514e-04
 Reference value :  2.64516e-04
 Reference value :  2.64519e-04
 Reference value :  2.64532e-04
 Reference value :  2.64608e-04
 Reference value :  2.64732e-04
 Reference value :  2.64750e-04
 Reference value :  2.64750e-04
 Reference value :  2.64750e-04
 Reference value :  2.64751e-04
 Reference value :  2.64751e-04
 Reference value :  2.64752e-04
 Reference value :  2.64753e-04
 Reference value :  2.64755e-04
 Reference value :  2.64759e-04
 Reference value :  2.64787e-04
 Reference value :  2.65000e-04
 Reference value :  2.65000e-04
 Reference value :  2.65000e-04
 Reference value :  2.65000e-04
 Reference value :  2.65001e-04
 Reference value :  2.65001e-04
 Reference value :  2.65002e-04
 Reference value :  2.65003e-04
 Reference value :  2.65005e-04
 Reference value :  2.65006e-04
 Reference value :  2.65007e-04
 Reference value :  2.65010e-04
 Reference value :  2.65022e-04
 Reference value :  2.65142e-04
 Reference value :  2.65250e-04
 Reference value :  2.65250e-04
 Reference value :  2.65251e-04
 Reference value :  2.65252e-04
 Reference value :  2.65253e-04
 Reference value :  2.65255e-04
 Reference value :  2.65257e-04
 Reference value :  2.65261e-04
 Reference value :  2.65290e-04
 Reference value :  2.65500e-04
 Reference value :  2.65500e-04
 Reference value :  2.65500e-04
 Reference value :  2.65501e-04
 Reference value :  2.65502e-04
 Reference value :  2.65504e-04
 Reference value :  2.65506e-04
 Reference value :  2.65508e-04
 Reference value :  2.65510e-04
 Reference value :  2.65513e-04
 Reference value :  2.65515e-04
 Reference value :  2.65521e-04
 Reference value :  2.65640e-04
 Reference value :  2.65750e-04
 Reference value :  2.65750e-04
 Reference value :  2.65751e-04
 Reference value :  2.65753e-04
 Reference value :  2.65754e-04
 Reference value :  2.65757e-04
 Reference value :  2.65817e-04
 Reference value :  2.66000e-04
 Reference value :  2.66000e-04
 Reference value :  2.66002e-04
 Reference value :  2.66003e-04
 Reference value :  2.66005e-04
 Reference value :  2.66007e-04
 Reference value :  2.66009e-04
 Reference value :  2.66014e-04
 Reference value :  2.66079e-04
 Reference value :  2.66250e-04
 Reference value :  2.66250e-04
 Reference value :  2.66250e-04
 Reference value :  2.66251e-04
 Reference value :  2.66252e-04
 Reference value :  2.66253e-04
 Reference value :  2.66254e-04
 Reference value :  2.66256e-04
 Reference value :  2.66257e-04
 Reference value :  2.66260e-04
 Reference value :  2.66275e-04
 Reference value :  2.66497e-04
 Reference value :  2.66500e-04
 Reference value :  2.66500e-04
 Reference value :  2.66501e-04
 Reference value :  2.66502e-04
 Reference value :  2.66502e-04
 Reference value :  2.66503e-04
 Reference value :  2.66504e-04
 Reference value :  2.66505e-04
 Reference value :  2.66506e-04
 Reference value :  2.66508e-04
 Reference value :  2.66509e-04
 Reference value :  2.66510e-04
 Reference value :  2.66512e-04
 Reference value :  2.66514e-04
 Reference value :  2.66515e-04
 Reference value :  2.66517e-04
 Reference value :  2.66525e-04
 Reference value :  2.66559e-04
 Reference value :  2.66598e-04
 Reference value :  2.66615e-04
 Reference value :  2.66630e-04
 Reference value :  2.66637e-04
 Reference value :  2.66664e-04
 Reference value :  2.66750e-04
 Reference value :  2.66750e-04
 Reference value :  2.66750e-04
 Reference value :  2.66751e-04
 Reference value :  2.66751e-04
 Reference value :  2.66752e-04
 Reference value :  2.66753e-04
 Reference value :  2.66753e-04
 Reference value :  2.66755e-04
 Reference value :  2.66757e-04
 Reference value :  2.66787e-04
 Reference value :  2.67000e-04
 Reference value :  2.67000e-04
 Reference value :  2.67000e-04
 Reference value :  2.67001e-04
 Reference value :  2.67002e-04
 Reference value :  2.67003e-04
 Reference value :  2.67004e-04
 Reference value :  2.67006e-04
 Reference value :  2.67010e-04
 Reference value :  2.67047e-04
 Reference value :  2.67250e-04
 Reference value :  2.67250e-04
 Reference value :  2.67251e-04
 Reference value :  2.67253e-04
 Reference value :  2.67254e-04
 Reference value :  2.67256e-04
 Reference value :  2.67282e-04
 Reference value :  2.67500e-04
 Reference value :  2.67500e-04
 Reference value :  2.67501e-04
 Reference value :  2.67502e-04
 Reference value :  2.67503e-04
 Reference value :  2.67505e-04
 Reference value :  2.67508e-04
 Reference value :  2.67512e-04
 Reference value :  2.67515e-04
 Reference value :  2.67524e-04
 Reference value :  2.67535e-04
 Reference value :  2.67547e-04
 Reference value :  2.67564e-04
 Reference value :  2.67750e-04
 Reference value :  2.67750e-04
 Reference value :  2.67750e-04
 Reference value :  2.67751e-04
 Reference value :  2.67753e-04
 Reference value :  2.67755e-04
 Reference value :  2.67759e-04
 Reference value :  2.67869e-04
 Reference value :  2.68000e-04
 Reference value :  2.68000e-04
 Reference value :  2.68001e-04
 Reference value :  2.68003e-04
 Reference value :  2.68005e-04
 Reference value :  2.68007e-04
 Reference value :  2.68011e-04
 Reference value :  2.68079e-04
 Reference value :  2.68250e-04
 Reference value :  2.68250e-04
 Reference value :  2.68250e-04
 Reference value :  2.68251e-04
 Reference value :  2.68252e-04
 Reference value :  2.68253e-04
 Reference value :  2.68254e-04
 Reference value :  2.68255e-04
 Reference value :  2.68256e-04
 Reference value :  2.68258e-04
 Reference value :  2.68260e-04
 Reference value :  2.68267e-04
 Reference value :  2.68319e-04
 Reference value :  2.68500e-04
 Reference value :  2.68500e-04
 Reference value :  2.68500e-04
 Reference value :  2.68500e-04
 Reference value :  2.68501e-04
 Reference value :  2.68501e-04
 Reference value :  2.68502e-04
 Reference value :  2.68502e-04
 Reference value :  2.68503e-04
 Reference value :  2.68504e-04
 Reference value :  2.68505e-04
 Reference value :  2.68506e-04
 Reference value :  2.68508e-04
 Reference value :  2.68509e-04
 Reference value :  2.68511e-04
 Reference value :  2.68514e-04
 Reference value :  2.68517e-04
 Reference value :  2.68525e-04
 Reference value :  2.68551e-04
 Reference value :  2.68580e-04
 Reference value :  2.68626e-04
 Reference value :  2.68743e-04
 Reference value :  2.68750e-04
 Reference value :  2.68750e-04
 Reference value :  2.68750e-04
 Reference value :  2.68751e-04
 Reference value :  2.68752e-04
 Reference value :  2.68753e-04
 Reference value :  2.68753e-04
 Reference value :  2.68755e-04
 Reference value :  2.68759e-04
 Reference value :  2.68773e-04
 Reference value :  2.68993e-04
 Reference value :  2.69000e-04
 Reference value :  2.69000e-04
 Reference value :  2.69000e-04
 Reference value :  2.69001e-04
 Reference value :  2.69002e-04
 Reference value :  2.69003e-04
 Reference value :  2.69004e-04
 Reference value :  2.69005e-04
 Reference value :  2.69006e-04
 Reference value :  2.69007e-04
 Reference value :  2.69010e-04
 Reference value :  2.69022e-04
 Reference value :  2.69142e-04
 Reference value :  2.69250e-04
 Reference value :  2.69250e-04
 Reference value :  2.69251e-04
 Reference value :  2.69251e-04
 Reference value :  2.69252e-04
 Reference value :  2.69253e-04
 Reference value :  2.69253e-04
 Reference value :  2.69254e-04
 Reference value :  2.69254e-04
 Reference value :  2.69255e-04
 Reference value :  2.69256e-04
 Reference value :  2.69257e-04
 Reference value :  2.69260e-04
 Reference value :  2.69264e-04
 Reference value :  2.69289e-04
 Reference value :  2.69377e-04
 Reference value :  2.69500e-04
 Reference value :  2.69500e-04
 Reference value :  2.69500e-04
 Reference value :  2.69500e-04
 Reference value :  2.69501e-04
 Reference value :  2.69501e-04
 Reference value :  2.69502e-04
 Reference value :  2.69502e-04
 Reference value :  2.69503e-04
 Reference value :  2.69504e-04
 Reference value :  2.69505e-04
 Reference value :  2.69506e-04
 Reference value :  2.69508e-04
 Reference value :  2.69509e-04
 Reference value :  2.69510e-04
 Reference value :  2.69511e-04
 Reference value :  2.69512e-04
 Reference value :  2.69514e-04
 Reference value :  2.69514e-04
 Reference value :  2.69515e-04
 Reference value :  2.69517e-04
 Reference value :  2.69519e-04
 Reference value :  2.69524e-04
 Reference value :  2.69531e-04
 Reference value :  2.69540e-04
 Reference value :  2.69579e-04
 Reference value :  2.69675e-04
 Reference value :  2.69750e-04
 Reference value :  2.69750e-04
 Reference value :  2.69750e-04
 Reference value :  2.69750e-04
 Reference value :  2.69751e-04
 Reference value :  2.69751e-04
 Reference value :  2.69752e-04
 Reference value :  2.69753e-04
 Reference value :  2.69753e-04
 Reference value :  2.69755e-04
 Reference value :  2.69756e-04
 Reference value :  2.69759e-04
 Reference value :  2.69773e-04
 Reference value :  2.69875e-04
 Reference value :  2.70000e-04
 Reference value :  2.70000e-04
 Reference value :  2.70000e-04
 Reference value :  2.70000e-04
 Reference value :  2.70000e-04
 Reference value :  2.70001e-04
 Reference value :  2.70002e-04
 Reference value :  2.70002e-04
 Reference value :  2.70003e-04
 Reference value :  2.70004e-04
 Reference value :  2.70005e-04
 Reference value :  2.70006e-04
 Reference value :  2.70007e-04
 Reference value :  2.70009e-04
 Reference value :  2.70010e-04
 Reference value :  2.70014e-04
 Reference value :  2.70022e-04
 Reference value :  2.70047e-04
 Reference value :  2.70250e-04
 Reference value :  2.70250e-04
 Reference value :  2.70250e-04
 Reference value :  2.70250e-04
 Reference value :  2.70250e-04
 Reference value :  2.70251e-04
 Reference value :  2.70251e-04
 Reference value :  2.70252e-04
 Reference value :  2.70253e-04
 Reference value :  2.70253e-04
 Reference value :  2.70254e-04
 Reference value :  2.70256e-04
 Reference value :  2.70257e-04
 Reference value :  2.70260e-04
 Reference value :  2.70267e-04
 Reference value :  2.70319e-04
 Reference value :  2.70500e-04
 Reference value :  2.70500e-04
 Reference value :  2.70500e-04
 Reference value :  2.70500e-04
 Reference value :  2.70500e-04
 Reference value :  2.70501e-04
 Reference value :  2.70502e-04
 Reference value :  2.70502e-04
 Reference value :  2.70503e-04
 Reference value :  2.70504e-04
 Reference value :  2.70505e-04
 Reference value :  2.70508e-04
 Reference value :  2.70509e-04
 Reference value :  2.70510e-04
 Reference value :  2.70512e-04
 Reference value :  2.70513e-04
 Reference value :  2.70516e-04
 Reference value :  2.70519e-04
 Reference value :  2.70525e-04
 Reference value :  2.70548e-04
 Reference value :  2.70666e-04
 Reference value :  2.70750e-04
 Reference value :  2.70750e-04
 Reference value :  2.70750e-04
 Reference value :  2.70751e-04
 Reference value :  2.70751e-04
 Reference value :  2.70752e-04
 Reference value :  2.70753e-04
 Reference value :  2.70753e-04
 Reference value :  2.70755e-04
 Reference value :  2.70756e-04
 Reference value :  2.70759e-04
 Reference value :  2.70765e-04
 Reference value :  2.70787e-04
 Reference value :  2.70875e-04
 Reference value :  2.71000e-04
 Reference value :  2.71000e-04
 Reference value :  2.71000e-04
 Reference value :  2.71000e-04
 Reference value :  2.71000e-04
 Reference value :  2.71001e-04
 Reference value :  2.71002e-04
 Reference value :  2.71002e-04
 Reference value :  2.71003e-04
 Reference value :  2.71004e-04
 Reference value :  2.71005e-04
 Reference value :  2.71006e-04
 Reference value :  2.71007e-04
 Reference value :  2.71009e-04
 Reference value :  2.71011e-04
 Reference value :  2.71017e-04
 Reference value :  2.71047e-04
 Reference value :  2.71250e-04
 Reference value :  2.71250e-04
 Reference value :  2.71250e-04
 Reference value :  2.71251e-04
 Reference value :  2.71251e-04
 Reference value :  2.71253e-04
 Reference value :  2.71253e-04
 Reference value :  2.71254e-04
 Reference value :  2.71256e-04
 Reference value :  2.71257e-04
 Reference value :  2.71260e-04
 Reference value :  2.71267e-04
 Reference value :  2.71318e-04
 Reference value :  2.71500e-04
 Reference value :  2.71500e-04
 Reference value :  2.71500e-04
 Reference value :  2.71500e-04
 Reference value :  2.71500e-04
 Reference value :  2.71501e-04
 Reference value :  2.71502e-04
 Reference value :  2.71503e-04
 Reference value :  2.71504e-04
 Reference value :  2.71505e-04
 Reference value :  2.71507e-04
 Reference value :  2.71509e-04
 Reference value :  2.71513e-04
 Reference value :  2.71515e-04
 Reference value :  2.71525e-04
 Reference value :  2.71565e-04
 Reference value :  2.71650e-04
 Reference value :  2.71673e-04
 Reference value :  2.71723e-04
 Reference value :  2.71750e-04
 Reference value :  2.71750e-04
 Reference value :  2.71750e-04
 Reference value :  2.71751e-04
 Reference value :  2.71752e-04
 Reference value :  2.71753e-04
 Reference value :  2.71755e-04
 Reference value :  2.71759e-04
 Reference value :  2.71775e-04
 Reference value :  2.72000e-04
No. of Data Rows : 39093
ngspice-44 done
