
Note: Compatibility modes selected: hs a


Circuit: ** sch_path: /home/ece/cace/sar-adc-using-sky130-pdk/runs/run_2025-09-10_20-47-10/parameters/dnl/run_0/sar_output_dnl.sch

option SCALE: Scale is set to 1e-06 for instance and model parameters
option SCALE: Scale is set to 1e-06 for instance and model parameters
option SCALE: Scale is set to 1e-06 for instance and model parameters
option SCALE: Scale is set to 1e-06 for instance and model parameters
Doing analysis at TEMP = 27.000000 and TNOM = 27.000000

Using KLU as Direct Linear Solver
Operating point simulation skipped by 'uic',
  now using transient initial conditions.
 Reference value :  1.00000e-12
 Reference value :  1.02772e-12
 Reference value :  1.08316e-12
 Reference value :  1.19404e-12
 Reference value :  1.33846e-12
 Reference value :  1.62730e-12
 Reference value :  2.20497e-12
 Reference value :  3.04326e-12
 Reference value :  3.94964e-12
 Reference value :  5.16948e-12
 Reference value :  6.91465e-12
 Reference value :  1.00820e-11
 Reference value :  1.37827e-11
 Reference value :  2.04931e-11
 Reference value :  2.74812e-11
 Reference value :  3.63792e-11
 Reference value :  4.74227e-11
 Reference value :  6.40625e-11
 Reference value :  8.43947e-11
 Reference value :  1.00000e-10
 Reference value :  1.01302e-10
 Reference value :  1.03905e-10
 Reference value :  1.09112e-10
 Reference value :  1.19526e-10
 Reference value :  1.40354e-10
 Reference value :  1.82011e-10
 Reference value :  2.65323e-10
 Reference value :  4.16941e-10
 Reference value :  5.86251e-10
 Reference value :  8.58058e-10
 Reference value :  1.23472e-09
 Reference value :  1.75774e-09
 Reference value :  2.56033e-09
 Reference value :  3.30742e-09
 Reference value :  4.36670e-09
 Reference value :  5.39097e-09
 Reference value :  6.35048e-09
 Reference value :  7.70933e-09
 Reference value :  9.02646e-09
 Reference value :  1.02540e-08
 Reference value :  1.11051e-08
 Reference value :  1.19458e-08
 Reference value :  1.29608e-08
 Reference value :  1.39540e-08
 Reference value :  1.59404e-08
 Reference value :  1.89543e-08
 Reference value :  2.28034e-08
 Reference value :  2.70076e-08
 Reference value :  3.06805e-08
 Reference value :  3.45711e-08
 Reference value :  3.83175e-08
 Reference value :  4.25114e-08
 Reference value :  5.08992e-08
 Reference value :  6.21159e-08
 Reference value :  8.17879e-08
 Reference value :  1.21132e-07
 Reference value :  1.84495e-07
 Reference value :  2.50100e-07
 Reference value :  2.50110e-07
 Reference value :  2.50130e-07
 Reference value :  2.50170e-07
 Reference value :  2.50200e-07
 Reference value :  2.50201e-07
 Reference value :  2.50202e-07
 Reference value :  2.50204e-07
 Reference value :  2.50208e-07
 Reference value :  2.50216e-07
 Reference value :  2.50233e-07
 Reference value :  2.50267e-07
 Reference value :  2.50335e-07
 Reference value :  2.50428e-07
 Reference value :  2.50611e-07
 Reference value :  2.50792e-07
 Reference value :  2.51135e-07
 Reference value :  2.51558e-07
 Reference value :  2.52259e-07
 Reference value :  2.52900e-07
 Reference value :  2.53739e-07
 Reference value :  2.54754e-07
 Reference value :  2.55923e-07
 Reference value :  2.57000e-07
 Reference value :  2.58032e-07
 Reference value :  2.59198e-07
 Reference value :  2.60299e-07
 Reference value :  2.62113e-07
 Reference value :  2.64722e-07
 Reference value :  2.67421e-07
 Reference value :  2.72044e-07
 Reference value :  2.78808e-07
 Reference value :  2.92337e-07
 Reference value :  3.19395e-07
 Reference value :  3.70365e-07
 Reference value :  4.72305e-07
 Reference value :  5.00000e-07
 Reference value :  5.00010e-07
 Reference value :  5.00030e-07
 Reference value :  5.00070e-07
 Reference value :  5.00100e-07
 Reference value :  5.00104e-07
 Reference value :  5.00113e-07
 Reference value :  5.00130e-07
 Reference value :  5.00164e-07
 Reference value :  5.00232e-07
 Reference value :  5.00369e-07
 Reference value :  5.00560e-07
 Reference value :  5.00941e-07
 Reference value :  5.01536e-07
 Reference value :  5.02163e-07
 Reference value :  5.02854e-07
 Reference value :  5.03676e-07
 Reference value :  5.04428e-07
 Reference value :  5.05342e-07
 Reference value :  5.06300e-07
 Reference value :  5.07291e-07
 Reference value :  5.08691e-07
 Reference value :  5.10115e-07
 Reference value :  5.12675e-07
 Reference value :  5.15600e-07
 Reference value :  5.17748e-07
 Reference value :  5.20194e-07
 Reference value :  5.22648e-07
 Reference value :  5.25203e-07
 Reference value :  5.28411e-07
 Reference value :  5.33032e-07
 Reference value :  5.39375e-07
 Reference value :  5.48757e-07
 Reference value :  5.67523e-07
 Reference value :  5.94941e-07
 Reference value :  6.45999e-07
 Reference value :  7.44574e-07
 Reference value :  7.50100e-07
 Reference value :  7.50110e-07
 Reference value :  7.50130e-07
 Reference value :  7.50170e-07
 Reference value :  7.50200e-07
 Reference value :  7.50201e-07
 Reference value :  7.50202e-07
 Reference value :  7.50205e-07
 Reference value :  7.50212e-07
 Reference value :  7.50224e-07
 Reference value :  7.50249e-07
 Reference value :  7.50298e-07
 Reference value :  7.50396e-07
 Reference value :  7.50594e-07
 Reference value :  7.50984e-07
 Reference value :  7.51569e-07
 Reference value :  7.52239e-07
 Reference value :  7.52985e-07
 Reference value :  7.53829e-07
 Reference value :  7.54923e-07
 Reference value :  7.55816e-07
 Reference value :  7.56877e-07
 Reference value :  7.57785e-07
 Reference value :  7.58768e-07
 Reference value :  7.59882e-07
 Reference value :  7.61132e-07
 Reference value :  7.63633e-07
 Reference value :  7.66447e-07
 Reference value :  7.70881e-07
 Reference value :  7.76848e-07
 Reference value :  7.88781e-07
 Reference value :  8.12649e-07
 Reference value :  8.60150e-07
 Reference value :  9.55153e-07
 Reference value :  1.00000e-06
 Reference value :  1.00001e-06
 Reference value :  1.00003e-06
 Reference value :  1.00007e-06
 Reference value :  1.00010e-06
 Reference value :  1.00010e-06
 Reference value :  1.00011e-06
 Reference value :  1.00013e-06
 Reference value :  1.00016e-06
 Reference value :  1.00023e-06
 Reference value :  1.00037e-06
 Reference value :  1.00056e-06
 Reference value :  1.00094e-06
 Reference value :  1.00153e-06
 Reference value :  1.00216e-06
 Reference value :  1.00285e-06
 Reference value :  1.00357e-06
 Reference value :  1.00432e-06
 Reference value :  1.00516e-06
 Reference value :  1.00607e-06
 Reference value :  1.00702e-06
 Reference value :  1.00795e-06
 Reference value :  1.00904e-06
 Reference value :  1.01001e-06
 Reference value :  1.01108e-06
 Reference value :  1.01259e-06
 Reference value :  1.01427e-06
 Reference value :  1.01717e-06
 Reference value :  1.02013e-06
 Reference value :  1.02249e-06
 Reference value :  1.02462e-06
 Reference value :  1.02615e-06
 Reference value :  1.02771e-06
 Reference value :  1.02917e-06
 Reference value :  1.03074e-06
 Reference value :  1.03251e-06
 Reference value :  1.03500e-06
 Reference value :  1.03757e-06
 Reference value :  1.04224e-06
 Reference value :  1.04907e-06
 Reference value :  1.05961e-06
 Reference value :  1.07738e-06
 Reference value :  1.09017e-06
 Reference value :  1.10242e-06
 Reference value :  1.11159e-06
 Reference value :  1.12047e-06
 Reference value :  1.12788e-06
 Reference value :  1.13578e-06
 Reference value :  1.14339e-06
 Reference value :  1.15138e-06
 Reference value :  1.16738e-06
 Reference value :  1.18506e-06
 Reference value :  1.21449e-06
 Reference value :  1.25010e-06
 Reference value :  1.25011e-06
 Reference value :  1.25013e-06
 Reference value :  1.25017e-06
 Reference value :  1.25020e-06
 Reference value :  1.25020e-06
 Reference value :  1.25020e-06
 Reference value :  1.25021e-06
 Reference value :  1.25021e-06
 Reference value :  1.25022e-06
 Reference value :  1.25025e-06
 Reference value :  1.25030e-06
 Reference value :  1.25040e-06
 Reference value :  1.25059e-06
 Reference value :  1.25094e-06
 Reference value :  1.25156e-06
 Reference value :  1.25219e-06
 Reference value :  1.25296e-06
 Reference value :  1.25378e-06
 Reference value :  1.25486e-06
 Reference value :  1.25572e-06
 Reference value :  1.25674e-06
 Reference value :  1.25770e-06
 Reference value :  1.25871e-06
 Reference value :  1.26042e-06
 Reference value :  1.26202e-06
 Reference value :  1.26487e-06
 Reference value :  1.26796e-06
 Reference value :  1.27300e-06
 Reference value :  1.28208e-06
 Reference value :  1.30022e-06
 Reference value :  1.33447e-06
 Reference value :  1.40297e-06
 Reference value :  1.50000e-06
 Reference value :  1.50001e-06
 Reference value :  1.50003e-06
 Reference value :  1.50007e-06
 Reference value :  1.50010e-06
 Reference value :  1.50010e-06
 Reference value :  1.50011e-06
 Reference value :  1.50013e-06
 Reference value :  1.50016e-06
 Reference value :  1.50023e-06
 Reference value :  1.50037e-06
 Reference value :  1.50056e-06
 Reference value :  1.50093e-06
 Reference value :  1.50161e-06
 Reference value :  1.50223e-06
 Reference value :  1.50286e-06
 Reference value :  1.50357e-06
 Reference value :  1.50431e-06
 Reference value :  1.50516e-06
 Reference value :  1.50606e-06
 Reference value :  1.50711e-06
 Reference value :  1.50845e-06
 Reference value :  1.50982e-06
 Reference value :  1.51139e-06
 Reference value :  1.51279e-06
 Reference value :  1.51425e-06
 Reference value :  1.51632e-06
 Reference value :  1.51822e-06
 Reference value :  1.52025e-06
 Reference value :  1.52333e-06
 Reference value :  1.52623e-06
 Reference value :  1.53176e-06
 Reference value :  1.53923e-06
 Reference value :  1.55160e-06
 Reference value :  1.57326e-06
 Reference value :  1.60790e-06
 Reference value :  1.67131e-06
 Reference value :  1.75010e-06
 Reference value :  1.75011e-06
 Reference value :  1.75013e-06
 Reference value :  1.75017e-06
 Reference value :  1.75020e-06
 Reference value :  1.75020e-06
 Reference value :  1.75020e-06
 Reference value :  1.75021e-06
 Reference value :  1.75021e-06
 Reference value :  1.75022e-06
 Reference value :  1.75025e-06
 Reference value :  1.75030e-06
 Reference value :  1.75040e-06
 Reference value :  1.75059e-06
 Reference value :  1.75094e-06
 Reference value :  1.75155e-06
 Reference value :  1.75218e-06
 Reference value :  1.75295e-06
 Reference value :  1.75378e-06
 Reference value :  1.75485e-06
 Reference value :  1.75576e-06
 Reference value :  1.75682e-06
 Reference value :  1.75775e-06
 Reference value :  1.75873e-06
 Reference value :  1.75987e-06
 Reference value :  1.76115e-06
 Reference value :  1.76245e-06
 Reference value :  1.76424e-06
 Reference value :  1.76646e-06
 Reference value :  1.76922e-06
 Reference value :  1.77289e-06
 Reference value :  1.77805e-06
 Reference value :  1.78835e-06
 Reference value :  1.80597e-06
 Reference value :  1.84121e-06
 Reference value :  1.91167e-06
 Reference value :  2.00000e-06
 Reference value :  2.00001e-06
 Reference value :  2.00003e-06
 Reference value :  2.00007e-06
 Reference value :  2.00010e-06
 Reference value :  2.00010e-06
 Reference value :  2.00011e-06
 Reference value :  2.00013e-06
 Reference value :  2.00016e-06
 Reference value :  2.00023e-06
 Reference value :  2.00037e-06
 Reference value :  2.00055e-06
 Reference value :  2.00092e-06
 Reference value :  2.00160e-06
 Reference value :  2.00223e-06
 Reference value :  2.00291e-06
 Reference value :  2.00363e-06
 Reference value :  2.00438e-06
 Reference value :  2.00522e-06
 Reference value :  2.00613e-06
 Reference value :  2.00697e-06
 Reference value :  2.00785e-06
 Reference value :  2.00875e-06
 Reference value :  2.00971e-06
 Reference value :  2.01060e-06
 Reference value :  2.01185e-06
 Reference value :  2.01314e-06
 Reference value :  2.01539e-06
 Reference value :  2.01787e-06
 Reference value :  2.01971e-06
 Reference value :  2.02176e-06
 Reference value :  2.02372e-06
 Reference value :  2.02521e-06
 Reference value :  2.02661e-06
 Reference value :  2.02809e-06
 Reference value :  2.02967e-06
 Reference value :  2.03147e-06
 Reference value :  2.03332e-06
 Reference value :  2.03647e-06
 Reference value :  2.03945e-06
 Reference value :  2.04541e-06
 Reference value :  2.05734e-06
 Reference value :  2.07535e-06
 Reference value :  2.11137e-06
 Reference value :  2.16379e-06
 Reference value :  2.23285e-06
 Reference value :  2.25010e-06
 Reference value :  2.25011e-06
 Reference value :  2.25013e-06
 Reference value :  2.25017e-06
 Reference value :  2.25020e-06
 Reference value :  2.25020e-06
 Reference value :  2.25020e-06
 Reference value :  2.25021e-06
 Reference value :  2.25021e-06
 Reference value :  2.25022e-06
 Reference value :  2.25025e-06
 Reference value :  2.25030e-06
 Reference value :  2.25039e-06
 Reference value :  2.25059e-06
 Reference value :  2.25093e-06
 Reference value :  2.25154e-06
 Reference value :  2.25217e-06
 Reference value :  2.25295e-06
 Reference value :  2.25376e-06
 Reference value :  2.25483e-06
 Reference value :  2.25576e-06
 Reference value :  2.25682e-06
 Reference value :  2.25794e-06
 Reference value :  2.25898e-06
 Reference value :  2.26079e-06
 Reference value :  2.26251e-06
 Reference value :  2.26533e-06
 Reference value :  2.26881e-06
 Reference value :  2.27404e-06
 Reference value :  2.28452e-06
 Reference value :  2.30328e-06
 Reference value :  2.33743e-06
 Reference value :  2.36392e-06
 Reference value :  2.38421e-06
 Reference value :  2.40592e-06
 Reference value :  2.42935e-06
 Reference value :  2.45659e-06
 Reference value :  2.50000e-06
 Reference value :  2.50001e-06
 Reference value :  2.50003e-06
 Reference value :  2.50007e-06
 Reference value :  2.50010e-06
 Reference value :  2.50010e-06
 Reference value :  2.50011e-06
 Reference value :  2.50013e-06
 Reference value :  2.50016e-06
 Reference value :  2.50023e-06
 Reference value :  2.50037e-06
 Reference value :  2.50056e-06
 Reference value :  2.50093e-06
 Reference value :  2.50161e-06
 Reference value :  2.50223e-06
 Reference value :  2.50286e-06
 Reference value :  2.50357e-06
 Reference value :  2.50431e-06
 Reference value :  2.50516e-06
 Reference value :  2.50606e-06
 Reference value :  2.50711e-06
 Reference value :  2.50845e-06
 Reference value :  2.50982e-06
 Reference value :  2.51139e-06
 Reference value :  2.51279e-06
 Reference value :  2.51426e-06
 Reference value :  2.51632e-06
 Reference value :  2.51822e-06
 Reference value :  2.52032e-06
 Reference value :  2.52309e-06
 Reference value :  2.52646e-06
 Reference value :  2.53210e-06
 Reference value :  2.54056e-06
 Reference value :  2.55494e-06
 Reference value :  2.57974e-06
 Reference value :  2.62198e-06
 Reference value :  2.70070e-06
 Reference value :  2.75010e-06
 Reference value :  2.75011e-06
 Reference value :  2.75013e-06
 Reference value :  2.75017e-06
 Reference value :  2.75020e-06
 Reference value :  2.75020e-06
 Reference value :  2.75020e-06
 Reference value :  2.75021e-06
 Reference value :  2.75021e-06
 Reference value :  2.75022e-06
 Reference value :  2.75025e-06
 Reference value :  2.75030e-06
 Reference value :  2.75040e-06
 Reference value :  2.75059e-06
 Reference value :  2.75094e-06
 Reference value :  2.75155e-06
 Reference value :  2.75218e-06
 Reference value :  2.75295e-06
 Reference value :  2.75377e-06
 Reference value :  2.75484e-06
 Reference value :  2.75575e-06
 Reference value :  2.75682e-06
 Reference value :  2.75776e-06
 Reference value :  2.75875e-06
 Reference value :  2.75988e-06
 Reference value :  2.76115e-06
 Reference value :  2.76248e-06
 Reference value :  2.76424e-06
 Reference value :  2.76654e-06
 Reference value :  2.76929e-06
 Reference value :  2.77303e-06
 Reference value :  2.77823e-06
 Reference value :  2.78863e-06
 Reference value :  2.80810e-06
 Reference value :  2.84702e-06
 Reference value :  2.92487e-06
 Reference value :  3.00000e-06
 Reference value :  3.00001e-06
 Reference value :  3.00003e-06
 Reference value :  3.00007e-06
 Reference value :  3.00010e-06
 Reference value :  3.00010e-06
 Reference value :  3.00011e-06
 Reference value :  3.00013e-06
 Reference value :  3.00016e-06
 Reference value :  3.00023e-06
 Reference value :  3.00037e-06
 Reference value :  3.00055e-06
 Reference value :  3.00092e-06
 Reference value :  3.00160e-06
 Reference value :  3.00223e-06
 Reference value :  3.00291e-06
 Reference value :  3.00362e-06
 Reference value :  3.00438e-06
 Reference value :  3.00522e-06
 Reference value :  3.00612e-06
 Reference value :  3.00707e-06
 Reference value :  3.00793e-06
 Reference value :  3.00885e-06
 Reference value :  3.00983e-06
 Reference value :  3.01077e-06
 Reference value :  3.01210e-06
 Reference value :  3.01350e-06
 Reference value :  3.01567e-06
 Reference value :  3.01722e-06
 Reference value :  3.01893e-06
 Reference value :  3.02050e-06
 Reference value :  3.02231e-06
 Reference value :  3.02381e-06
 Reference value :  3.02533e-06
 Reference value :  3.02712e-06
 Reference value :  3.02876e-06
 Reference value :  3.03035e-06
 Reference value :  3.03238e-06
 Reference value :  3.03464e-06
 Reference value :  3.03738e-06
 Reference value :  3.04151e-06
 Reference value :  3.04781e-06
 Reference value :  3.05793e-06
 Reference value :  3.06782e-06
 Reference value :  3.07721e-06
 Reference value :  3.08282e-06
 Reference value :  3.08832e-06
 Reference value :  3.09500e-06
 Reference value :  3.10260e-06
 Reference value :  3.11273e-06
 Reference value :  3.12523e-06
 Reference value :  3.14176e-06
 Reference value :  3.16353e-06
 Reference value :  3.19230e-06
 Reference value :  3.23110e-06
 Reference value :  3.25010e-06
 Reference value :  3.25011e-06
 Reference value :  3.25013e-06
 Reference value :  3.25017e-06
 Reference value :  3.25020e-06
 Reference value :  3.25020e-06
 Reference value :  3.25020e-06
 Reference value :  3.25021e-06
 Reference value :  3.25021e-06
 Reference value :  3.25022e-06
 Reference value :  3.25025e-06
 Reference value :  3.25030e-06
 Reference value :  3.25040e-06
 Reference value :  3.25059e-06
 Reference value :  3.25094e-06
 Reference value :  3.25155e-06
 Reference value :  3.25218e-06
 Reference value :  3.25295e-06
 Reference value :  3.25377e-06
 Reference value :  3.25483e-06
 Reference value :  3.25578e-06
 Reference value :  3.25687e-06
 Reference value :  3.25798e-06
 Reference value :  3.25905e-06
 Reference value :  3.26084e-06
 Reference value :  3.26259e-06
 Reference value :  3.26540e-06
 Reference value :  3.26894e-06
 Reference value :  3.27425e-06
 Reference value :  3.28487e-06
 Reference value :  3.30334e-06
 Reference value :  3.33703e-06
 Reference value :  3.40440e-06
 Reference value :  3.50000e-06
 Reference value :  3.50001e-06
 Reference value :  3.50003e-06
 Reference value :  3.50007e-06
 Reference value :  3.50010e-06
 Reference value :  3.50010e-06
 Reference value :  3.50011e-06
 Reference value :  3.50013e-06
 Reference value :  3.50016e-06
 Reference value :  3.50023e-06
 Reference value :  3.50037e-06
 Reference value :  3.50056e-06
 Reference value :  3.50093e-06
 Reference value :  3.50161e-06
 Reference value :  3.50223e-06
 Reference value :  3.50291e-06
 Reference value :  3.50362e-06
 Reference value :  3.50438e-06
 Reference value :  3.50523e-06
 Reference value :  3.50615e-06
 Reference value :  3.50711e-06
 Reference value :  3.50847e-06
 Reference value :  3.50978e-06
 Reference value :  3.51140e-06
 Reference value :  3.51288e-06
 Reference value :  3.51443e-06
 Reference value :  3.51596e-06
 Reference value :  3.51767e-06
 Reference value :  3.51944e-06
 Reference value :  3.52137e-06
 Reference value :  3.52522e-06
 Reference value :  3.53289e-06
 Reference value :  3.54587e-06
 Reference value :  3.57184e-06
 Reference value :  3.62377e-06
 Reference value :  3.72764e-06
 Reference value :  3.75010e-06
 Reference value :  3.75011e-06
 Reference value :  3.75013e-06
 Reference value :  3.75017e-06
 Reference value :  3.75020e-06
 Reference value :  3.75020e-06
 Reference value :  3.75020e-06
 Reference value :  3.75021e-06
 Reference value :  3.75021e-06
 Reference value :  3.75022e-06
 Reference value :  3.75025e-06
 Reference value :  3.75030e-06
 Reference value :  3.75039e-06
 Reference value :  3.75059e-06
 Reference value :  3.75093e-06
 Reference value :  3.75154e-06
 Reference value :  3.75216e-06
 Reference value :  3.75294e-06
 Reference value :  3.75375e-06
 Reference value :  3.75482e-06
 Reference value :  3.75575e-06
 Reference value :  3.75683e-06
 Reference value :  3.75777e-06
 Reference value :  3.75877e-06
 Reference value :  3.75991e-06
 Reference value :  3.76119e-06
 Reference value :  3.76374e-06
 Reference value :  3.76656e-06
 Reference value :  3.77109e-06
 Reference value :  3.77723e-06
 Reference value :  3.78950e-06
 Reference value :  3.81405e-06
 Reference value :  3.86313e-06
 Reference value :  3.96131e-06
 Reference value :  4.00000e-06
 Reference value :  4.00001e-06
 Reference value :  4.00003e-06
 Reference value :  4.00007e-06
 Reference value :  4.00010e-06
 Reference value :  4.00010e-06
 Reference value :  4.00011e-06
 Reference value :  4.00013e-06
 Reference value :  4.00016e-06
 Reference value :  4.00023e-06
 Reference value :  4.00037e-06
 Reference value :  4.00055e-06
 Reference value :  4.00092e-06
 Reference value :  4.00160e-06
 Reference value :  4.00223e-06
 Reference value :  4.00291e-06
 Reference value :  4.00363e-06
 Reference value :  4.00439e-06
 Reference value :  4.00523e-06
 Reference value :  4.00615e-06
 Reference value :  4.00717e-06
 Reference value :  4.00818e-06
 Reference value :  4.00913e-06
 Reference value :  4.01013e-06
 Reference value :  4.01117e-06
 Reference value :  4.01254e-06
 Reference value :  4.01441e-06
 Reference value :  4.01726e-06
 Reference value :  4.02017e-06
 Reference value :  4.02254e-06
 Reference value :  4.02446e-06
 Reference value :  4.02627e-06
 Reference value :  4.02828e-06
 Reference value :  4.03017e-06
 Reference value :  4.03235e-06
 Reference value :  4.03472e-06
 Reference value :  4.03806e-06
 Reference value :  4.04200e-06
 Reference value :  4.04942e-06
 Reference value :  4.05714e-06
 Reference value :  4.06566e-06
 Reference value :  4.07541e-06
 Reference value :  4.08643e-06
 Reference value :  4.09376e-06
 Reference value :  4.10176e-06
 Reference value :  4.11095e-06
 Reference value :  4.11908e-06
 Reference value :  4.12764e-06
 Reference value :  4.13936e-06
 Reference value :  4.15643e-06
 Reference value :  4.18095e-06
 Reference value :  4.21936e-06
 Reference value :  4.25010e-06
 Reference value :  4.25011e-06
 Reference value :  4.25013e-06
 Reference value :  4.25017e-06
 Reference value :  4.25020e-06
 Reference value :  4.25020e-06
 Reference value :  4.25020e-06
 Reference value :  4.25021e-06
 Reference value :  4.25021e-06
 Reference value :  4.25022e-06
 Reference value :  4.25025e-06
 Reference value :  4.25030e-06
 Reference value :  4.25039e-06
 Reference value :  4.25059e-06
 Reference value :  4.25092e-06
 Reference value :  4.25154e-06
 Reference value :  4.25216e-06
 Reference value :  4.25294e-06
 Reference value :  4.25375e-06
 Reference value :  4.25481e-06
 Reference value :  4.25569e-06
 Reference value :  4.25672e-06
 Reference value :  4.25770e-06
 Reference value :  4.25872e-06
 Reference value :  4.26044e-06
 Reference value :  4.26203e-06
 Reference value :  4.26489e-06
 Reference value :  4.26798e-06
 Reference value :  4.27305e-06
 Reference value :  4.28192e-06
 Reference value :  4.29967e-06
 Reference value :  4.33518e-06
 Reference value :  4.40619e-06
 Reference value :  4.50000e-06
 Reference value :  4.50001e-06
 Reference value :  4.50003e-06
 Reference value :  4.50007e-06
 Reference value :  4.50010e-06
 Reference value :  4.50010e-06
 Reference value :  4.50011e-06
 Reference value :  4.50013e-06
 Reference value :  4.50016e-06
 Reference value :  4.50023e-06
 Reference value :  4.50037e-06
 Reference value :  4.50056e-06
 Reference value :  4.50092e-06
 Reference value :  4.50161e-06
 Reference value :  4.50223e-06
 Reference value :  4.50286e-06
 Reference value :  4.50357e-06
 Reference value :  4.50431e-06
 Reference value :  4.50516e-06
 Reference value :  4.50606e-06
 Reference value :  4.50702e-06
 Reference value :  4.50838e-06
 Reference value :  4.50965e-06
 Reference value :  4.51115e-06
 Reference value :  4.51248e-06
 Reference value :  4.51389e-06
 Reference value :  4.51531e-06
 Reference value :  4.51699e-06
 Reference value :  4.51879e-06
 Reference value :  4.52066e-06
 Reference value :  4.52439e-06
 Reference value :  4.53187e-06
 Reference value :  4.54489e-06
 Reference value :  4.57093e-06
 Reference value :  4.62301e-06
 Reference value :  4.72718e-06
 Reference value :  4.75010e-06
 Reference value :  4.75011e-06
 Reference value :  4.75013e-06
 Reference value :  4.75017e-06
 Reference value :  4.75020e-06
 Reference value :  4.75020e-06
 Reference value :  4.75020e-06
 Reference value :  4.75021e-06
 Reference value :  4.75021e-06
 Reference value :  4.75022e-06
 Reference value :  4.75025e-06
 Reference value :  4.75030e-06
 Reference value :  4.75039e-06
 Reference value :  4.75059e-06
 Reference value :  4.75092e-06
 Reference value :  4.75154e-06
 Reference value :  4.75216e-06
 Reference value :  4.75294e-06
 Reference value :  4.75375e-06
 Reference value :  4.75481e-06
 Reference value :  4.75573e-06
 Reference value :  4.75680e-06
 Reference value :  4.75774e-06
 Reference value :  4.75874e-06
 Reference value :  4.75987e-06
 Reference value :  4.76114e-06
 Reference value :  4.76241e-06
 Reference value :  4.76421e-06
 Reference value :  4.76638e-06
 Reference value :  4.76914e-06
 Reference value :  4.77275e-06
 Reference value :  4.77786e-06
 Reference value :  4.78809e-06
 Reference value :  4.80441e-06
 Reference value :  4.83707e-06
 Reference value :  4.90238e-06
 Reference value :  5.00000e-06
 Reference value :  5.00001e-06
 Reference value :  5.00003e-06
 Reference value :  5.00007e-06
 Reference value :  5.00010e-06
 Reference value :  5.00010e-06
 Reference value :  5.00011e-06
 Reference value :  5.00013e-06
 Reference value :  5.00016e-06
 Reference value :  5.00023e-06
 Reference value :  5.00037e-06
 Reference value :  5.00055e-06
 Reference value :  5.00092e-06
 Reference value :  5.00160e-06
 Reference value :  5.00223e-06
 Reference value :  5.00291e-06
 Reference value :  5.00363e-06
 Reference value :  5.00440e-06
 Reference value :  5.00524e-06
 Reference value :  5.00615e-06
 Reference value :  5.00702e-06
 Reference value :  5.00792e-06
 Reference value :  5.00885e-06
 Reference value :  5.00984e-06
 Reference value :  5.01084e-06
 Reference value :  5.01222e-06
 Reference value :  5.01390e-06
 Reference value :  5.01542e-06
 Reference value :  5.01707e-06
 Reference value :  5.01876e-06
 Reference value :  5.02054e-06
 Reference value :  5.02231e-06
 Reference value :  5.02369e-06
 Reference value :  5.02503e-06
 Reference value :  5.02672e-06
 Reference value :  5.02835e-06
 Reference value :  5.02973e-06
 Reference value :  5.03115e-06
 Reference value :  5.03309e-06
 Reference value :  5.03488e-06
 Reference value :  5.03846e-06
 Reference value :  5.04290e-06
 Reference value :  5.05034e-06
 Reference value :  5.05928e-06
 Reference value :  5.07274e-06
 Reference value :  5.08538e-06
 Reference value :  5.10542e-06
 Reference value :  5.12365e-06
 Reference value :  5.15976e-06
 Reference value :  5.21426e-06
 Reference value :  5.25010e-06
 Reference value :  5.25011e-06
 Reference value :  5.25013e-06
 Reference value :  5.25017e-06
 Reference value :  5.25020e-06
 Reference value :  5.25020e-06
 Reference value :  5.25020e-06
 Reference value :  5.25021e-06
 Reference value :  5.25021e-06
 Reference value :  5.25022e-06
 Reference value :  5.25025e-06
 Reference value :  5.25030e-06
 Reference value :  5.25039e-06
 Reference value :  5.25059e-06
 Reference value :  5.25093e-06
 Reference value :  5.25154e-06
 Reference value :  5.25216e-06
 Reference value :  5.25294e-06
 Reference value :  5.25375e-06
 Reference value :  5.25481e-06
 Reference value :  5.25578e-06
 Reference value :  5.25688e-06
 Reference value :  5.25797e-06
 Reference value :  5.25906e-06
 Reference value :  5.26083e-06
 Reference value :  5.26260e-06
 Reference value :  5.26541e-06
 Reference value :  5.26897e-06
 Reference value :  5.27428e-06
 Reference value :  5.28489e-06
 Reference value :  5.30336e-06
 Reference value :  5.33696e-06
 Reference value :  5.40417e-06
 Reference value :  5.50000e-06
 Reference value :  5.50001e-06
 Reference value :  5.50003e-06
 Reference value :  5.50007e-06
 Reference value :  5.50010e-06
 Reference value :  5.50010e-06
 Reference value :  5.50011e-06
 Reference value :  5.50013e-06
 Reference value :  5.50016e-06
 Reference value :  5.50023e-06
 Reference value :  5.50037e-06
 Reference value :  5.50056e-06
 Reference value :  5.50093e-06
 Reference value :  5.50161e-06
 Reference value :  5.50223e-06
 Reference value :  5.50291e-06
 Reference value :  5.50363e-06
 Reference value :  5.50438e-06
 Reference value :  5.50523e-06
 Reference value :  5.50615e-06
 Reference value :  5.50718e-06
 Reference value :  5.50852e-06
 Reference value :  5.50990e-06
 Reference value :  5.51134e-06
 Reference value :  5.51291e-06
 Reference value :  5.51459e-06
 Reference value :  5.51617e-06
 Reference value :  5.51781e-06
 Reference value :  5.51961e-06
 Reference value :  5.52165e-06
 Reference value :  5.52529e-06
 Reference value :  5.53067e-06
 Reference value :  5.54106e-06
 Reference value :  5.56063e-06
 Reference value :  5.59755e-06
 Reference value :  5.67137e-06
 Reference value :  5.75010e-06
 Reference value :  5.75011e-06
 Reference value :  5.75013e-06
 Reference value :  5.75017e-06
 Reference value :  5.75020e-06
 Reference value :  5.75020e-06
 Reference value :  5.75020e-06
 Reference value :  5.75021e-06
 Reference value :  5.75021e-06
 Reference value :  5.75022e-06
 Reference value :  5.75025e-06
 Reference value :  5.75030e-06
 Reference value :  5.75039e-06
 Reference value :  5.75059e-06
 Reference value :  5.75093e-06
 Reference value :  5.75154e-06
 Reference value :  5.75216e-06
 Reference value :  5.75294e-06
 Reference value :  5.75375e-06
 Reference value :  5.75481e-06
 Reference value :  5.75575e-06
 Reference value :  5.75683e-06
 Reference value :  5.75778e-06
 Reference value :  5.75878e-06
 Reference value :  5.75992e-06
 Reference value :  5.76120e-06
 Reference value :  5.76375e-06
 Reference value :  5.76658e-06
 Reference value :  5.77112e-06
 Reference value :  5.77730e-06
 Reference value :  5.78966e-06
 Reference value :  5.81438e-06
 Reference value :  5.86381e-06
 Reference value :  5.96268e-06
 Reference value :  6.00000e-06
 Reference value :  6.00001e-06
 Reference value :  6.00003e-06
 Reference value :  6.00007e-06
 Reference value :  6.00010e-06
 Reference value :  6.00010e-06
 Reference value :  6.00011e-06
 Reference value :  6.00013e-06
 Reference value :  6.00016e-06
 Reference value :  6.00023e-06
 Reference value :  6.00037e-06
 Reference value :  6.00055e-06
 Reference value :  6.00092e-06
 Reference value :  6.00160e-06
 Reference value :  6.00223e-06
 Reference value :  6.00291e-06
 Reference value :  6.00363e-06
 Reference value :  6.00439e-06
 Reference value :  6.00524e-06
 Reference value :  6.00615e-06
 Reference value :  6.00710e-06
 Reference value :  6.00813e-06
 Reference value :  6.00897e-06
 Reference value :  6.00997e-06
 Reference value :  6.01099e-06
 Reference value :  6.01228e-06
 Reference value :  6.01424e-06
 Reference value :  6.01725e-06
 Reference value :  6.02029e-06
 Reference value :  6.02269e-06
 Reference value :  6.02473e-06
 Reference value :  6.02668e-06
 Reference value :  6.02869e-06
 Reference value :  6.03068e-06
 Reference value :  6.03291e-06
 Reference value :  6.03520e-06
 Reference value :  6.03859e-06
 Reference value :  6.04298e-06
 Reference value :  6.05173e-06
 Reference value :  6.06396e-06
 Reference value :  6.07684e-06
 Reference value :  6.09243e-06
 Reference value :  6.11737e-06
 Reference value :  6.15348e-06
 Reference value :  6.22571e-06
 Reference value :  6.25010e-06
 Reference value :  6.25011e-06
 Reference value :  6.25013e-06
 Reference value :  6.25017e-06
 Reference value :  6.25020e-06
 Reference value :  6.25020e-06
 Reference value :  6.25020e-06
 Reference value :  6.25021e-06
 Reference value :  6.25021e-06
 Reference value :  6.25022e-06
 Reference value :  6.25025e-06
 Reference value :  6.25030e-06
 Reference value :  6.25040e-06
 Reference value :  6.25059e-06
 Reference value :  6.25094e-06
 Reference value :  6.25154e-06
 Reference value :  6.25218e-06
 Reference value :  6.25294e-06
 Reference value :  6.25377e-06
 Reference value :  6.25483e-06
 Reference value :  6.25578e-06
 Reference value :  6.25687e-06
 Reference value :  6.25797e-06
 Reference value :  6.25904e-06
 Reference value :  6.26082e-06
 Reference value :  6.26256e-06
 Reference value :  6.26537e-06
 Reference value :  6.26890e-06
 Reference value :  6.27419e-06
 Reference value :  6.28476e-06
 Reference value :  6.30306e-06
 Reference value :  6.33644e-06
 Reference value :  6.40318e-06
 Reference value :  6.50000e-06
 Reference value :  6.50001e-06
 Reference value :  6.50003e-06
 Reference value :  6.50007e-06
 Reference value :  6.50010e-06
 Reference value :  6.50010e-06
 Reference value :  6.50011e-06
 Reference value :  6.50013e-06
 Reference value :  6.50016e-06
 Reference value :  6.50023e-06
 Reference value :  6.50037e-06
 Reference value :  6.50056e-06
 Reference value :  6.50093e-06
 Reference value :  6.50161e-06
 Reference value :  6.50223e-06
 Reference value :  6.50291e-06
 Reference value :  6.50362e-06
 Reference value :  6.50438e-06
 Reference value :  6.50523e-06
 Reference value :  6.50615e-06
 Reference value :  6.50711e-06
 Reference value :  6.50847e-06
 Reference value :  6.50978e-06
 Reference value :  6.51142e-06
 Reference value :  6.51290e-06
 Reference value :  6.51445e-06
 Reference value :  6.51588e-06
 Reference value :  6.51747e-06
 Reference value :  6.51912e-06
 Reference value :  6.52102e-06
 Reference value :  6.52481e-06
 Reference value :  6.53048e-06
 Reference value :  6.54182e-06
 Reference value :  6.56451e-06
 Reference value :  6.60988e-06
 Reference value :  6.70062e-06
 Reference value :  6.75010e-06
 Reference value :  6.75011e-06
 Reference value :  6.75013e-06
 Reference value :  6.75017e-06
 Reference value :  6.75020e-06
 Reference value :  6.75020e-06
 Reference value :  6.75020e-06
 Reference value :  6.75021e-06
 Reference value :  6.75021e-06
 Reference value :  6.75022e-06
 Reference value :  6.75025e-06
 Reference value :  6.75030e-06
 Reference value :  6.75039e-06
 Reference value :  6.75059e-06
 Reference value :  6.75093e-06
 Reference value :  6.75154e-06
 Reference value :  6.75216e-06
 Reference value :  6.75294e-06
 Reference value :  6.75375e-06
 Reference value :  6.75481e-06
 Reference value :  6.75574e-06
 Reference value :  6.75681e-06
 Reference value :  6.75776e-06
 Reference value :  6.75875e-06
 Reference value :  6.75989e-06
 Reference value :  6.76116e-06
 Reference value :  6.76371e-06
 Reference value :  6.76651e-06
 Reference value :  6.77102e-06
 Reference value :  6.77708e-06
 Reference value :  6.78920e-06
 Reference value :  6.81345e-06
 Reference value :  6.86195e-06
 Reference value :  6.95894e-06
 Reference value :  7.00000e-06
 Reference value :  7.00001e-06
 Reference value :  7.00003e-06
 Reference value :  7.00007e-06
 Reference value :  7.00010e-06
 Reference value :  7.00010e-06
 Reference value :  7.00011e-06
 Reference value :  7.00013e-06
 Reference value :  7.00016e-06
 Reference value :  7.00023e-06
 Reference value :  7.00037e-06
 Reference value :  7.00055e-06
 Reference value :  7.00092e-06
 Reference value :  7.00160e-06
 Reference value :  7.00223e-06
 Reference value :  7.00291e-06
 Reference value :  7.00363e-06
 Reference value :  7.00439e-06
 Reference value :  7.00523e-06
 Reference value :  7.00615e-06
 Reference value :  7.00717e-06
 Reference value :  7.00818e-06
 Reference value :  7.00904e-06
 Reference value :  7.01006e-06
 Reference value :  7.01108e-06
 Reference value :  7.01240e-06
 Reference value :  7.01436e-06
 Reference value :  7.01723e-06
 Reference value :  7.02046e-06
 Reference value :  7.02288e-06
 Reference value :  7.02508e-06
 Reference value :  7.02725e-06
 Reference value :  7.02925e-06
 Reference value :  7.03145e-06
 Reference value :  7.03381e-06
 Reference value :  7.03638e-06
 Reference value :  7.03932e-06
 Reference value :  7.04387e-06
 Reference value :  7.04990e-06
 Reference value :  7.05652e-06
 Reference value :  7.06589e-06
 Reference value :  7.08277e-06
 Reference value :  7.10893e-06
 Reference value :  7.15706e-06
 Reference value :  7.23928e-06
 Reference value :  7.25010e-06
 Reference value :  7.25011e-06
 Reference value :  7.25013e-06
 Reference value :  7.25017e-06
 Reference value :  7.25020e-06
 Reference value :  7.25020e-06
 Reference value :  7.25020e-06
 Reference value :  7.25021e-06
 Reference value :  7.25021e-06
 Reference value :  7.25022e-06
 Reference value :  7.25025e-06
 Reference value :  7.25030e-06
 Reference value :  7.25040e-06
 Reference value :  7.25059e-06
 Reference value :  7.25095e-06
 Reference value :  7.25154e-06
 Reference value :  7.25219e-06
 Reference value :  7.25294e-06
 Reference value :  7.25377e-06
 Reference value :  7.25483e-06
 Reference value :  7.25574e-06
 Reference value :  7.25681e-06
 Reference value :  7.25794e-06
 Reference value :  7.25897e-06
 Reference value :  7.26079e-06
 Reference value :  7.26246e-06
 Reference value :  7.26529e-06
 Reference value :  7.26874e-06
 Reference value :  7.27397e-06
 Reference value :  7.28444e-06
 Reference value :  7.30293e-06
 Reference value :  7.33674e-06
 Reference value :  7.40437e-06
 Reference value :  7.50000e-06
 Reference value :  7.50001e-06
 Reference value :  7.50003e-06
 Reference value :  7.50007e-06
 Reference value :  7.50010e-06
 Reference value :  7.50010e-06
 Reference value :  7.50011e-06
 Reference value :  7.50013e-06
 Reference value :  7.50016e-06
 Reference value :  7.50023e-06
 Reference value :  7.50037e-06
 Reference value :  7.50056e-06
 Reference value :  7.50093e-06
 Reference value :  7.50152e-06
 Reference value :  7.50214e-06
 Reference value :  7.50284e-06
 Reference value :  7.50356e-06
 Reference value :  7.50432e-06
 Reference value :  7.50517e-06
 Reference value :  7.50609e-06
 Reference value :  7.50714e-06
 Reference value :  7.50847e-06
 Reference value :  7.50985e-06
 Reference value :  7.51155e-06
 Reference value :  7.51308e-06
 Reference value :  7.51466e-06
 Reference value :  7.51609e-06
 Reference value :  7.51771e-06
 Reference value :  7.51931e-06
 Reference value :  7.52118e-06
 Reference value :  7.52491e-06
 Reference value :  7.53120e-06
 Reference value :  7.54377e-06
 Reference value :  7.56892e-06
 Reference value :  7.61923e-06
 Reference value :  7.71983e-06
 Reference value :  7.75010e-06
 Reference value :  7.75011e-06
 Reference value :  7.75013e-06
 Reference value :  7.75017e-06
 Reference value :  7.75020e-06
 Reference value :  7.75020e-06
 Reference value :  7.75020e-06
 Reference value :  7.75021e-06
 Reference value :  7.75021e-06
 Reference value :  7.75022e-06
 Reference value :  7.75025e-06
 Reference value :  7.75030e-06
 Reference value :  7.75039e-06
 Reference value :  7.75059e-06
 Reference value :  7.75093e-06
 Reference value :  7.75154e-06
 Reference value :  7.75217e-06
 Reference value :  7.75294e-06
 Reference value :  7.75375e-06
 Reference value :  7.75482e-06
 Reference value :  7.75571e-06
 Reference value :  7.75675e-06
 Reference value :  7.75766e-06
 Reference value :  7.75864e-06
 Reference value :  7.75976e-06
 Reference value :  7.76102e-06
 Reference value :  7.76353e-06
 Reference value :  7.76625e-06
 Reference value :  7.77068e-06
 Reference value :  7.77645e-06
 Reference value :  7.78799e-06
 Reference value :  7.81107e-06
 Reference value :  7.85723e-06
 Reference value :  7.94955e-06
 Reference value :  8.00000e-06
 Reference value :  8.00001e-06
 Reference value :  8.00003e-06
 Reference value :  8.00007e-06
 Reference value :  8.00010e-06
 Reference value :  8.00010e-06
 Reference value :  8.00011e-06
 Reference value :  8.00013e-06
 Reference value :  8.00016e-06
 Reference value :  8.00023e-06
 Reference value :  8.00037e-06
 Reference value :  8.00055e-06
 Reference value :  8.00092e-06
 Reference value :  8.00151e-06
 Reference value :  8.00214e-06
 Reference value :  8.00284e-06
 Reference value :  8.00356e-06
 Reference value :  8.00433e-06
 Reference value :  8.00517e-06
 Reference value :  8.00609e-06
 Reference value :  8.00702e-06
 Reference value :  8.00802e-06
 Reference value :  8.00897e-06
 Reference value :  8.00995e-06
 Reference value :  8.01097e-06
 Reference value :  8.01231e-06
 Reference value :  8.01413e-06
 Reference value :  8.01685e-06
 Reference value :  8.02022e-06
 Reference value :  8.02271e-06
 Reference value :  8.02546e-06
 Reference value :  8.02813e-06
 Reference value :  8.03121e-06
 Reference value :  8.03586e-06
 Reference value :  8.04193e-06
 Reference value :  8.05211e-06
 Reference value :  8.06822e-06
 Reference value :  8.09503e-06
 Reference value :  8.14683e-06
 Reference value :  8.24910e-06
 Reference value :  8.25010e-06
 Reference value :  8.25011e-06
 Reference value :  8.25013e-06
 Reference value :  8.25017e-06
 Reference value :  8.25020e-06
 Reference value :  8.25020e-06
 Reference value :  8.25020e-06
 Reference value :  8.25021e-06
 Reference value :  8.25021e-06
 Reference value :  8.25022e-06
 Reference value :  8.25025e-06
 Reference value :  8.25030e-06
 Reference value :  8.25039e-06
 Reference value :  8.25059e-06
 Reference value :  8.25097e-06
 Reference value :  8.25154e-06
 Reference value :  8.25221e-06
 Reference value :  8.25295e-06
 Reference value :  8.25379e-06
 Reference value :  8.25485e-06
 Reference value :  8.25616e-06
 Reference value :  8.25753e-06
 Reference value :  8.25911e-06
 Reference value :  8.26083e-06
 Reference value :  8.26340e-06
 Reference value :  8.26637e-06
 Reference value :  8.27042e-06
 Reference value :  8.27625e-06
 Reference value :  8.28791e-06
 Reference value :  8.31124e-06
 Reference value :  8.35744e-06
 Reference value :  8.44984e-06
 Reference value :  8.50000e-06
 Reference value :  8.50000e-06
 Reference value :  8.50000e-06
 Reference value :  8.50000e-06
 Reference value :  8.50000e-06
 Reference value :  8.50000e-06
 Reference value :  8.50000e-06
 Reference value :  8.50000e-06
 Reference value :  8.50000e-06
 Reference value :  8.50000e-06
 Reference value :  8.50001e-06
 Reference value :  8.50001e-06
 Reference value :  8.50002e-06
 Reference value :  8.50004e-06
 Reference value :  8.50008e-06
 Reference value :  8.50010e-06
 Reference value :  8.50010e-06
 Reference value :  8.50011e-06
 Reference value :  8.50012e-06
 Reference value :  8.50014e-06
 Reference value :  8.50018e-06
 Reference value :  8.50027e-06
 Reference value :  8.50043e-06
 Reference value :  8.50077e-06
 Reference value :  8.50132e-06
 Reference value :  8.50220e-06
 Reference value :  8.50303e-06
 Reference value :  8.50371e-06
 Reference value :  8.50456e-06
 Reference value :  8.50538e-06
 Reference value :  8.50639e-06
 Reference value :  8.50750e-06
 Reference value :  8.50873e-06
 Reference value :  8.51058e-06
 Reference value :  8.51264e-06
 Reference value :  8.51428e-06
 Reference value :  8.51607e-06
 Reference value :  8.51842e-06
 Reference value :  8.52143e-06
 Reference value :  8.52436e-06
 Reference value :  8.53023e-06
 Reference value :  8.53710e-06
 Reference value :  8.54188e-06
 Reference value :  8.54588e-06
 Reference value :  8.54936e-06
 Reference value :  8.55255e-06
 Reference value :  8.55514e-06
 Reference value :  8.55763e-06
 Reference value :  8.55980e-06
 Reference value :  8.56211e-06
 Reference value :  8.56509e-06
 Reference value :  8.56861e-06
 Reference value :  8.57181e-06
 Reference value :  8.57715e-06
 Reference value :  8.58283e-06
 Reference value :  8.59209e-06
 Reference value :  8.60211e-06
 Reference value :  8.61860e-06
 Reference value :  8.64074e-06
 Reference value :  8.66761e-06
 Reference value :  8.69567e-06
 Reference value :  8.72208e-06
 Reference value :  8.75010e-06
 Reference value :  8.75011e-06
 Reference value :  8.75013e-06
 Reference value :  8.75017e-06
 Reference value :  8.75020e-06
 Reference value :  8.75020e-06
 Reference value :  8.75020e-06
 Reference value :  8.75021e-06
 Reference value :  8.75021e-06
 Reference value :  8.75022e-06
 Reference value :  8.75025e-06
 Reference value :  8.75030e-06
 Reference value :  8.75040e-06
 Reference value :  8.75059e-06
 Reference value :  8.75098e-06
 Reference value :  8.75155e-06
 Reference value :  8.75223e-06
 Reference value :  8.75299e-06
 Reference value :  8.75379e-06
 Reference value :  8.75491e-06
 Reference value :  8.75587e-06
 Reference value :  8.75693e-06
 Reference value :  8.75794e-06
 Reference value :  8.75899e-06
 Reference value :  8.76066e-06
 Reference value :  8.76238e-06
 Reference value :  8.76507e-06
 Reference value :  8.76855e-06
 Reference value :  8.77358e-06
 Reference value :  8.78365e-06
 Reference value :  8.80097e-06
 Reference value :  8.83202e-06
 Reference value :  8.89379e-06
 Reference value :  9.00000e-06
 Reference value :  9.00001e-06
 Reference value :  9.00003e-06
 Reference value :  9.00007e-06
 Reference value :  9.00010e-06
 Reference value :  9.00010e-06
 Reference value :  9.00011e-06
 Reference value :  9.00013e-06
 Reference value :  9.00016e-06
 Reference value :  9.00023e-06
 Reference value :  9.00037e-06
 Reference value :  9.00056e-06
 Reference value :  9.00094e-06
 Reference value :  9.00154e-06
 Reference value :  9.00216e-06
 Reference value :  9.00285e-06
 Reference value :  9.00368e-06
 Reference value :  9.00443e-06
 Reference value :  9.00531e-06
 Reference value :  9.00625e-06
 Reference value :  9.00722e-06
 Reference value :  9.00865e-06
 Reference value :  9.01002e-06
 Reference value :  9.01253e-06
 Reference value :  9.01561e-06
 Reference value :  9.01779e-06
 Reference value :  9.02029e-06
 Reference value :  9.02279e-06
 Reference value :  9.02537e-06
 Reference value :  9.02852e-06
 Reference value :  9.03344e-06
 Reference value :  9.04025e-06
 Reference value :  9.05008e-06
 Reference value :  9.06974e-06
 Reference value :  9.09812e-06
 Reference value :  9.15046e-06
 Reference value :  9.25010e-06
 Reference value :  9.25011e-06
 Reference value :  9.25013e-06
 Reference value :  9.25017e-06
 Reference value :  9.25020e-06
 Reference value :  9.25020e-06
 Reference value :  9.25020e-06
 Reference value :  9.25021e-06
 Reference value :  9.25021e-06
 Reference value :  9.25022e-06
 Reference value :  9.25025e-06
 Reference value :  9.25030e-06
 Reference value :  9.25039e-06
 Reference value :  9.25059e-06
 Reference value :  9.25097e-06
 Reference value :  9.25156e-06
 Reference value :  9.25222e-06
 Reference value :  9.25298e-06
 Reference value :  9.25382e-06
 Reference value :  9.25491e-06
 Reference value :  9.25580e-06
 Reference value :  9.25686e-06
 Reference value :  9.25777e-06
 Reference value :  9.25875e-06
 Reference value :  9.25992e-06
 Reference value :  9.26120e-06
 Reference value :  9.26377e-06
 Reference value :  9.26658e-06
 Reference value :  9.27112e-06
 Reference value :  9.27721e-06
 Reference value :  9.28939e-06
 Reference value :  9.31375e-06
 Reference value :  9.36247e-06
 Reference value :  9.45992e-06
 Reference value :  9.50000e-06
 Reference value :  9.50001e-06
 Reference value :  9.50003e-06
 Reference value :  9.50007e-06
 Reference value :  9.50010e-06
 Reference value :  9.50010e-06
 Reference value :  9.50011e-06
 Reference value :  9.50013e-06
 Reference value :  9.50016e-06
 Reference value :  9.50023e-06
 Reference value :  9.50037e-06
 Reference value :  9.50056e-06
 Reference value :  9.50094e-06
 Reference value :  9.50153e-06
 Reference value :  9.50216e-06
 Reference value :  9.50285e-06
 Reference value :  9.50357e-06
 Reference value :  9.50432e-06
 Reference value :  9.50516e-06
 Reference value :  9.50607e-06
 Reference value :  9.50702e-06
 Reference value :  9.50795e-06
 Reference value :  9.50904e-06
 Reference value :  9.51001e-06
 Reference value :  9.51108e-06
 Reference value :  9.51259e-06
 Reference value :  9.51428e-06
 Reference value :  9.51717e-06
 Reference value :  9.52013e-06
 Reference value :  9.52249e-06
 Reference value :  9.52463e-06
 Reference value :  9.52616e-06
 Reference value :  9.52772e-06
 Reference value :  9.52918e-06
 Reference value :  9.53076e-06
 Reference value :  9.53252e-06
 Reference value :  9.53500e-06
 Reference value :  9.53757e-06
 Reference value :  9.54220e-06
 Reference value :  9.54898e-06
 Reference value :  9.55938e-06
 Reference value :  9.57385e-06
 Reference value :  9.58588e-06
 Reference value :  9.59787e-06
 Reference value :  9.60645e-06
 Reference value :  9.61332e-06
 Reference value :  9.62007e-06
 Reference value :  9.62618e-06
 Reference value :  9.63249e-06
 Reference value :  9.63893e-06
 Reference value :  9.64653e-06
 Reference value :  9.65771e-06
 Reference value :  9.67284e-06
 Reference value :  9.69426e-06
 Reference value :  9.72739e-06
 Reference value :  9.75010e-06
 Reference value :  9.75011e-06
 Reference value :  9.75013e-06
 Reference value :  9.75017e-06
 Reference value :  9.75020e-06
 Reference value :  9.75020e-06
 Reference value :  9.75020e-06
 Reference value :  9.75021e-06
 Reference value :  9.75021e-06
 Reference value :  9.75022e-06
 Reference value :  9.75025e-06
 Reference value :  9.75030e-06
 Reference value :  9.75040e-06
 Reference value :  9.75059e-06
 Reference value :  9.75094e-06
 Reference value :  9.75156e-06
 Reference value :  9.75219e-06
 Reference value :  9.75296e-06
 Reference value :  9.75378e-06
 Reference value :  9.75486e-06
 Reference value :  9.75572e-06
 Reference value :  9.75673e-06
 Reference value :  9.75769e-06
 Reference value :  9.75871e-06
 Reference value :  9.76039e-06
 Reference value :  9.76199e-06
 Reference value :  9.76481e-06
 Reference value :  9.76789e-06
 Reference value :  9.77291e-06
 Reference value :  9.78179e-06
 Reference value :  9.79955e-06
 Reference value :  9.83489e-06
 Reference value :  9.90556e-06
 Reference value :  1.00000e-05
 Reference value :  1.00000e-05
 Reference value :  1.00000e-05
 Reference value :  1.00001e-05
 Reference value :  1.00001e-05
 Reference value :  1.00001e-05
 Reference value :  1.00001e-05
 Reference value :  1.00001e-05
 Reference value :  1.00002e-05
 Reference value :  1.00002e-05
 Reference value :  1.00004e-05
 Reference value :  1.00006e-05
 Reference value :  1.00009e-05
 Reference value :  1.00016e-05
 Reference value :  1.00022e-05
 Reference value :  1.00029e-05
 Reference value :  1.00036e-05
 Reference value :  1.00043e-05
 Reference value :  1.00052e-05
 Reference value :  1.00061e-05
 Reference value :  1.00071e-05
 Reference value :  1.00085e-05
 Reference value :  1.00098e-05
 Reference value :  1.00114e-05
 Reference value :  1.00128e-05
 Reference value :  1.00143e-05
 Reference value :  1.00163e-05
 Reference value :  1.00182e-05
 Reference value :  1.00202e-05
 Reference value :  1.00234e-05
 Reference value :  1.00262e-05
 Reference value :  1.00317e-05
 Reference value :  1.00390e-05
 Reference value :  1.00511e-05
 Reference value :  1.00722e-05
 Reference value :  1.01056e-05
 Reference value :  1.01656e-05
 Reference value :  1.02501e-05
 Reference value :  1.02501e-05
 Reference value :  1.02501e-05
 Reference value :  1.02502e-05
 Reference value :  1.02502e-05
 Reference value :  1.02502e-05
 Reference value :  1.02502e-05
 Reference value :  1.02502e-05
 Reference value :  1.02502e-05
 Reference value :  1.02502e-05
 Reference value :  1.02502e-05
 Reference value :  1.02503e-05
 Reference value :  1.02504e-05
 Reference value :  1.02506e-05
 Reference value :  1.02509e-05
 Reference value :  1.02516e-05
 Reference value :  1.02522e-05
 Reference value :  1.02530e-05
 Reference value :  1.02538e-05
 Reference value :  1.02548e-05
 Reference value :  1.02558e-05
 Reference value :  1.02568e-05
 Reference value :  1.02577e-05
 Reference value :  1.02587e-05
 Reference value :  1.02599e-05
 Reference value :  1.02611e-05
 Reference value :  1.02625e-05
 Reference value :  1.02642e-05
 Reference value :  1.02665e-05
 Reference value :  1.02692e-05
 Reference value :  1.02729e-05
 Reference value :  1.02781e-05
 Reference value :  1.02884e-05
 Reference value :  1.03060e-05
 Reference value :  1.03413e-05
 Reference value :  1.04119e-05
 Reference value :  1.05000e-05
 Reference value :  1.05000e-05
 Reference value :  1.05000e-05
 Reference value :  1.05001e-05
 Reference value :  1.05001e-05
 Reference value :  1.05001e-05
 Reference value :  1.05001e-05
 Reference value :  1.05001e-05
 Reference value :  1.05002e-05
 Reference value :  1.05002e-05
 Reference value :  1.05004e-05
 Reference value :  1.05006e-05
 Reference value :  1.05009e-05
 Reference value :  1.05016e-05
 Reference value :  1.05022e-05
 Reference value :  1.05029e-05
 Reference value :  1.05036e-05
 Reference value :  1.05044e-05
 Reference value :  1.05052e-05
 Reference value :  1.05061e-05
 Reference value :  1.05070e-05
 Reference value :  1.05079e-05
 Reference value :  1.05087e-05
 Reference value :  1.05097e-05
 Reference value :  1.05106e-05
 Reference value :  1.05118e-05
 Reference value :  1.05131e-05
 Reference value :  1.05154e-05
 Reference value :  1.05179e-05
 Reference value :  1.05197e-05
 Reference value :  1.05218e-05
 Reference value :  1.05237e-05
 Reference value :  1.05252e-05
 Reference value :  1.05266e-05
 Reference value :  1.05281e-05
 Reference value :  1.05296e-05
 Reference value :  1.05316e-05
 Reference value :  1.05334e-05
 Reference value :  1.05363e-05
 Reference value :  1.05392e-05
 Reference value :  1.05452e-05
 Reference value :  1.05560e-05
 Reference value :  1.05738e-05
 Reference value :  1.06087e-05
 Reference value :  1.06606e-05
 Reference value :  1.07284e-05
 Reference value :  1.07501e-05
 Reference value :  1.07501e-05
 Reference value :  1.07501e-05
 Reference value :  1.07502e-05
 Reference value :  1.07502e-05
 Reference value :  1.07502e-05
 Reference value :  1.07502e-05
 Reference value :  1.07502e-05
 Reference value :  1.07502e-05
 Reference value :  1.07502e-05
 Reference value :  1.07502e-05
 Reference value :  1.07503e-05
 Reference value :  1.07504e-05
 Reference value :  1.07506e-05
 Reference value :  1.07509e-05
 Reference value :  1.07515e-05
 Reference value :  1.07522e-05
 Reference value :  1.07529e-05
 Reference value :  1.07538e-05
 Reference value :  1.07548e-05
 Reference value :  1.07558e-05
 Reference value :  1.07568e-05
 Reference value :  1.07579e-05
 Reference value :  1.07590e-05
 Reference value :  1.07608e-05
 Reference value :  1.07625e-05
 Reference value :  1.07653e-05
 Reference value :  1.07688e-05
 Reference value :  1.07740e-05
 Reference value :  1.07844e-05
 Reference value :  1.08028e-05
 Reference value :  1.08362e-05
 Reference value :  1.08665e-05
 Reference value :  1.08903e-05
 Reference value :  1.09119e-05
 Reference value :  1.09315e-05
 Reference value :  1.09544e-05
 Reference value :  1.09993e-05
 Reference value :  1.10000e-05
 Reference value :  1.10000e-05
 Reference value :  1.10000e-05
 Reference value :  1.10001e-05
 Reference value :  1.10001e-05
 Reference value :  1.10001e-05
 Reference value :  1.10001e-05
 Reference value :  1.10001e-05
 Reference value :  1.10002e-05
 Reference value :  1.10002e-05
 Reference value :  1.10004e-05
 Reference value :  1.10006e-05
 Reference value :  1.10009e-05
 Reference value :  1.10016e-05
 Reference value :  1.10022e-05
 Reference value :  1.10029e-05
 Reference value :  1.10036e-05
 Reference value :  1.10043e-05
 Reference value :  1.10052e-05
 Reference value :  1.10061e-05
 Reference value :  1.10071e-05
 Reference value :  1.10085e-05
 Reference value :  1.10098e-05
 Reference value :  1.10114e-05
 Reference value :  1.10128e-05
 Reference value :  1.10143e-05
 Reference value :  1.10163e-05
 Reference value :  1.10182e-05
 Reference value :  1.10203e-05
 Reference value :  1.10231e-05
 Reference value :  1.10265e-05
 Reference value :  1.10321e-05
 Reference value :  1.10406e-05
 Reference value :  1.10550e-05
 Reference value :  1.10799e-05
 Reference value :  1.11223e-05
 Reference value :  1.12005e-05
 Reference value :  1.12501e-05
 Reference value :  1.12501e-05
 Reference value :  1.12501e-05
 Reference value :  1.12502e-05
 Reference value :  1.12502e-05
 Reference value :  1.12502e-05
 Reference value :  1.12502e-05
 Reference value :  1.12502e-05
 Reference value :  1.12502e-05
 Reference value :  1.12502e-05
 Reference value :  1.12502e-05
 Reference value :  1.12503e-05
 Reference value :  1.12504e-05
 Reference value :  1.12506e-05
 Reference value :  1.12509e-05
 Reference value :  1.12515e-05
 Reference value :  1.12522e-05
 Reference value :  1.12529e-05
 Reference value :  1.12538e-05
 Reference value :  1.12548e-05
 Reference value :  1.12558e-05
 Reference value :  1.12568e-05
 Reference value :  1.12578e-05
 Reference value :  1.12587e-05
 Reference value :  1.12599e-05
 Reference value :  1.12612e-05
 Reference value :  1.12625e-05
 Reference value :  1.12642e-05
 Reference value :  1.12665e-05
 Reference value :  1.12693e-05
 Reference value :  1.12730e-05
 Reference value :  1.12782e-05
 Reference value :  1.12887e-05
 Reference value :  1.13081e-05
 Reference value :  1.13471e-05
 Reference value :  1.14250e-05
 Reference value :  1.15000e-05
 Reference value :  1.15000e-05
 Reference value :  1.15000e-05
 Reference value :  1.15001e-05
 Reference value :  1.15001e-05
 Reference value :  1.15001e-05
 Reference value :  1.15001e-05
 Reference value :  1.15001e-05
 Reference value :  1.15002e-05
 Reference value :  1.15002e-05
 Reference value :  1.15004e-05
 Reference value :  1.15006e-05
 Reference value :  1.15009e-05
 Reference value :  1.15016e-05
 Reference value :  1.15022e-05
 Reference value :  1.15029e-05
 Reference value :  1.15036e-05
 Reference value :  1.15044e-05
 Reference value :  1.15052e-05
 Reference value :  1.15061e-05
 Reference value :  1.15071e-05
 Reference value :  1.15079e-05
 Reference value :  1.15088e-05
 Reference value :  1.15098e-05
 Reference value :  1.15108e-05
 Reference value :  1.15121e-05
 Reference value :  1.15135e-05
 Reference value :  1.15159e-05
 Reference value :  1.15175e-05
 Reference value :  1.15193e-05
 Reference value :  1.15209e-05
 Reference value :  1.15227e-05
 Reference value :  1.15239e-05
 Reference value :  1.15252e-05
 Reference value :  1.15267e-05
 Reference value :  1.15282e-05
 Reference value :  1.15296e-05
 Reference value :  1.15314e-05
 Reference value :  1.15332e-05
 Reference value :  1.15362e-05
 Reference value :  1.15398e-05
 Reference value :  1.15471e-05
 Reference value :  1.15580e-05
 Reference value :  1.15694e-05
 Reference value :  1.15798e-05
 Reference value :  1.15845e-05
 Reference value :  1.15890e-05
 Reference value :  1.15935e-05
 Reference value :  1.16016e-05
 Reference value :  1.16106e-05
 Reference value :  1.16239e-05
 Reference value :  1.16442e-05
 Reference value :  1.16716e-05
 Reference value :  1.17144e-05
 Reference value :  1.17501e-05
 Reference value :  1.17501e-05
 Reference value :  1.17501e-05
 Reference value :  1.17502e-05
 Reference value :  1.17502e-05
 Reference value :  1.17502e-05
 Reference value :  1.17502e-05
 Reference value :  1.17502e-05
 Reference value :  1.17502e-05
 Reference value :  1.17502e-05
 Reference value :  1.17502e-05
 Reference value :  1.17503e-05
 Reference value :  1.17504e-05
 Reference value :  1.17506e-05
 Reference value :  1.17509e-05
 Reference value :  1.17515e-05
 Reference value :  1.17522e-05
 Reference value :  1.17529e-05
 Reference value :  1.17538e-05
 Reference value :  1.17548e-05
 Reference value :  1.17558e-05
 Reference value :  1.17569e-05
 Reference value :  1.17580e-05
 Reference value :  1.17591e-05
 Reference value :  1.17608e-05
 Reference value :  1.17626e-05
 Reference value :  1.17654e-05
 Reference value :  1.17690e-05
 Reference value :  1.17742e-05
 Reference value :  1.17848e-05
 Reference value :  1.18031e-05
 Reference value :  1.18364e-05
 Reference value :  1.19028e-05
 Reference value :  1.20000e-05
 Reference value :  1.20000e-05
 Reference value :  1.20000e-05
 Reference value :  1.20001e-05
 Reference value :  1.20001e-05
 Reference value :  1.20001e-05
 Reference value :  1.20001e-05
 Reference value :  1.20001e-05
 Reference value :  1.20002e-05
 Reference value :  1.20002e-05
 Reference value :  1.20004e-05
 Reference value :  1.20006e-05
 Reference value :  1.20009e-05
 Reference value :  1.20016e-05
 Reference value :  1.20022e-05
 Reference value :  1.20029e-05
 Reference value :  1.20036e-05
 Reference value :  1.20044e-05
 Reference value :  1.20052e-05
 Reference value :  1.20062e-05
 Reference value :  1.20071e-05
 Reference value :  1.20085e-05
 Reference value :  1.20098e-05
 Reference value :  1.20114e-05
 Reference value :  1.20129e-05
 Reference value :  1.20144e-05
 Reference value :  1.20160e-05
 Reference value :  1.20177e-05
 Reference value :  1.20194e-05
 Reference value :  1.20214e-05
 Reference value :  1.20252e-05
 Reference value :  1.20329e-05
 Reference value :  1.20458e-05
 Reference value :  1.20717e-05
 Reference value :  1.21235e-05
 Reference value :  1.22270e-05
 Reference value :  1.22501e-05
 Reference value :  1.22501e-05
 Reference value :  1.22501e-05
 Reference value :  1.22502e-05
 Reference value :  1.22502e-05
 Reference value :  1.22502e-05
 Reference value :  1.22502e-05
 Reference value :  1.22502e-05
 Reference value :  1.22502e-05
 Reference value :  1.22502e-05
 Reference value :  1.22502e-05
 Reference value :  1.22503e-05
 Reference value :  1.22504e-05
 Reference value :  1.22506e-05
 Reference value :  1.22509e-05
 Reference value :  1.22515e-05
 Reference value :  1.22522e-05
 Reference value :  1.22529e-05
 Reference value :  1.22538e-05
 Reference value :  1.22548e-05
 Reference value :  1.22558e-05
 Reference value :  1.22568e-05
 Reference value :  1.22578e-05
 Reference value :  1.22588e-05
 Reference value :  1.22599e-05
 Reference value :  1.22612e-05
 Reference value :  1.22637e-05
 Reference value :  1.22666e-05
 Reference value :  1.22711e-05
 Reference value :  1.22772e-05
 Reference value :  1.22895e-05
 Reference value :  1.23140e-05
 Reference value :  1.23630e-05
 Reference value :  1.24610e-05
 Reference value :  1.25000e-05
 Reference value :  1.25000e-05
 Reference value :  1.25000e-05
 Reference value :  1.25001e-05
 Reference value :  1.25001e-05
 Reference value :  1.25001e-05
 Reference value :  1.25001e-05
 Reference value :  1.25001e-05
 Reference value :  1.25002e-05
 Reference value :  1.25002e-05
 Reference value :  1.25004e-05
 Reference value :  1.25006e-05
 Reference value :  1.25009e-05
 Reference value :  1.25016e-05
 Reference value :  1.25022e-05
 Reference value :  1.25029e-05
 Reference value :  1.25036e-05
 Reference value :  1.25044e-05
 Reference value :  1.25052e-05
 Reference value :  1.25061e-05
 Reference value :  1.25072e-05
 Reference value :  1.25082e-05
 Reference value :  1.25091e-05
 Reference value :  1.25101e-05
 Reference value :  1.25112e-05
 Reference value :  1.25125e-05
 Reference value :  1.25144e-05
 Reference value :  1.25173e-05
 Reference value :  1.25202e-05
 Reference value :  1.25225e-05
 Reference value :  1.25245e-05
 Reference value :  1.25263e-05
 Reference value :  1.25283e-05
 Reference value :  1.25302e-05
 Reference value :  1.25323e-05
 Reference value :  1.25347e-05
 Reference value :  1.25380e-05
 Reference value :  1.25419e-05
 Reference value :  1.25494e-05
 Reference value :  1.25581e-05
 Reference value :  1.25671e-05
 Reference value :  1.25773e-05
 Reference value :  1.25896e-05
 Reference value :  1.25983e-05
 Reference value :  1.26064e-05
 Reference value :  1.26144e-05
 Reference value :  1.26218e-05
 Reference value :  1.26302e-05
 Reference value :  1.26469e-05
 Reference value :  1.26690e-05
 Reference value :  1.27062e-05
 Reference value :  1.27501e-05
 Reference value :  1.27501e-05
 Reference value :  1.27501e-05
 Reference value :  1.27502e-05
 Reference value :  1.27502e-05
 Reference value :  1.27502e-05
 Reference value :  1.27502e-05
 Reference value :  1.27502e-05
 Reference value :  1.27502e-05
 Reference value :  1.27502e-05
 Reference value :  1.27502e-05
 Reference value :  1.27503e-05
 Reference value :  1.27504e-05
 Reference value :  1.27506e-05
 Reference value :  1.27509e-05
 Reference value :  1.27515e-05
 Reference value :  1.27522e-05
 Reference value :  1.27529e-05
 Reference value :  1.27538e-05
 Reference value :  1.27548e-05
 Reference value :  1.27557e-05
 Reference value :  1.27567e-05
 Reference value :  1.27577e-05
 Reference value :  1.27587e-05
 Reference value :  1.27604e-05
 Reference value :  1.27620e-05
 Reference value :  1.27648e-05
 Reference value :  1.27679e-05
 Reference value :  1.27729e-05
 Reference value :  1.27815e-05
 Reference value :  1.27987e-05
 Reference value :  1.28330e-05
 Reference value :  1.29017e-05
 Reference value :  1.30000e-05
 Reference value :  1.30000e-05
 Reference value :  1.30000e-05
 Reference value :  1.30001e-05
 Reference value :  1.30001e-05
 Reference value :  1.30001e-05
 Reference value :  1.30001e-05
 Reference value :  1.30001e-05
 Reference value :  1.30002e-05
 Reference value :  1.30002e-05
 Reference value :  1.30004e-05
 Reference value :  1.30006e-05
 Reference value :  1.30009e-05
 Reference value :  1.30016e-05
 Reference value :  1.30022e-05
 Reference value :  1.30029e-05
 Reference value :  1.30036e-05
 Reference value :  1.30043e-05
 Reference value :  1.30052e-05
 Reference value :  1.30061e-05
 Reference value :  1.30070e-05
 Reference value :  1.30084e-05
 Reference value :  1.30096e-05
 Reference value :  1.30112e-05
 Reference value :  1.30125e-05
 Reference value :  1.30139e-05
 Reference value :  1.30153e-05
 Reference value :  1.30170e-05
 Reference value :  1.30190e-05
 Reference value :  1.30208e-05
 Reference value :  1.30244e-05
 Reference value :  1.30316e-05
 Reference value :  1.30440e-05
 Reference value :  1.30688e-05
 Reference value :  1.31183e-05
 Reference value :  1.32175e-05
 Reference value :  1.32501e-05
 Reference value :  1.32501e-05
 Reference value :  1.32501e-05
 Reference value :  1.32502e-05
 Reference value :  1.32502e-05
 Reference value :  1.32502e-05
 Reference value :  1.32502e-05
 Reference value :  1.32502e-05
 Reference value :  1.32502e-05
 Reference value :  1.32502e-05
 Reference value :  1.32502e-05
 Reference value :  1.32503e-05
 Reference value :  1.32504e-05
 Reference value :  1.32506e-05
 Reference value :  1.32509e-05
 Reference value :  1.32515e-05
 Reference value :  1.32522e-05
 Reference value :  1.32529e-05
 Reference value :  1.32537e-05
 Reference value :  1.32548e-05
 Reference value :  1.32557e-05
 Reference value :  1.32568e-05
 Reference value :  1.32577e-05
 Reference value :  1.32587e-05
 Reference value :  1.32599e-05
 Reference value :  1.32611e-05
 Reference value :  1.32624e-05
 Reference value :  1.32642e-05
 Reference value :  1.32663e-05
 Reference value :  1.32691e-05
 Reference value :  1.32727e-05
 Reference value :  1.32778e-05
 Reference value :  1.32880e-05
 Reference value :  1.33038e-05
 Reference value :  1.33355e-05
 Reference value :  1.33989e-05
 Reference value :  1.34713e-05
 Reference value :  1.35000e-05
 Reference value :  1.35000e-05
 Reference value :  1.35000e-05
 Reference value :  1.35001e-05
 Reference value :  1.35001e-05
 Reference value :  1.35001e-05
 Reference value :  1.35001e-05
 Reference value :  1.35001e-05
 Reference value :  1.35002e-05
 Reference value :  1.35002e-05
 Reference value :  1.35004e-05
 Reference value :  1.35006e-05
 Reference value :  1.35009e-05
 Reference value :  1.35016e-05
 Reference value :  1.35022e-05
 Reference value :  1.35029e-05
 Reference value :  1.35036e-05
 Reference value :  1.35044e-05
 Reference value :  1.35052e-05
 Reference value :  1.35061e-05
 Reference value :  1.35070e-05
 Reference value :  1.35079e-05
 Reference value :  1.35088e-05
 Reference value :  1.35098e-05
 Reference value :  1.35108e-05
 Reference value :  1.35121e-05
 Reference value :  1.35137e-05
 Reference value :  1.35154e-05
 Reference value :  1.35172e-05
 Reference value :  1.35190e-05
 Reference value :  1.35209e-05
 Reference value :  1.35227e-05
 Reference value :  1.35240e-05
 Reference value :  1.35252e-05
 Reference value :  1.35267e-05
 Reference value :  1.35280e-05
 Reference value :  1.35294e-05
 Reference value :  1.35313e-05
 Reference value :  1.35331e-05
 Reference value :  1.35361e-05
 Reference value :  1.35397e-05
 Reference value :  1.35468e-05
 Reference value :  1.35591e-05
 Reference value :  1.35715e-05
 Reference value :  1.35868e-05
 Reference value :  1.36051e-05
 Reference value :  1.36249e-05
 Reference value :  1.36574e-05
 Reference value :  1.37138e-05
 Reference value :  1.37501e-05
 Reference value :  1.37501e-05
 Reference value :  1.37501e-05
 Reference value :  1.37502e-05
 Reference value :  1.37502e-05
 Reference value :  1.37502e-05
 Reference value :  1.37502e-05
 Reference value :  1.37502e-05
 Reference value :  1.37502e-05
 Reference value :  1.37502e-05
 Reference value :  1.37502e-05
 Reference value :  1.37503e-05
 Reference value :  1.37504e-05
 Reference value :  1.37506e-05
 Reference value :  1.37509e-05
 Reference value :  1.37515e-05
 Reference value :  1.37522e-05
 Reference value :  1.37529e-05
 Reference value :  1.37538e-05
 Reference value :  1.37548e-05
 Reference value :  1.37558e-05
 Reference value :  1.37569e-05
 Reference value :  1.37580e-05
 Reference value :  1.37591e-05
 Reference value :  1.37608e-05
 Reference value :  1.37626e-05
 Reference value :  1.37654e-05
 Reference value :  1.37690e-05
 Reference value :  1.37743e-05
 Reference value :  1.37848e-05
 Reference value :  1.38031e-05
 Reference value :  1.38364e-05
 Reference value :  1.39028e-05
 Reference value :  1.40000e-05
 Reference value :  1.40000e-05
 Reference value :  1.40000e-05
 Reference value :  1.40001e-05
 Reference value :  1.40001e-05
 Reference value :  1.40001e-05
 Reference value :  1.40001e-05
 Reference value :  1.40001e-05
 Reference value :  1.40002e-05
 Reference value :  1.40002e-05
 Reference value :  1.40004e-05
 Reference value :  1.40006e-05
 Reference value :  1.40009e-05
 Reference value :  1.40016e-05
 Reference value :  1.40022e-05
 Reference value :  1.40029e-05
 Reference value :  1.40036e-05
 Reference value :  1.40044e-05
 Reference value :  1.40052e-05
 Reference value :  1.40062e-05
 Reference value :  1.40072e-05
 Reference value :  1.40085e-05
 Reference value :  1.40099e-05
 Reference value :  1.40113e-05
 Reference value :  1.40129e-05
 Reference value :  1.40146e-05
 Reference value :  1.40162e-05
 Reference value :  1.40178e-05
 Reference value :  1.40196e-05
 Reference value :  1.40216e-05
 Reference value :  1.40253e-05
 Reference value :  1.40306e-05
 Reference value :  1.40410e-05
 Reference value :  1.40605e-05
 Reference value :  1.40973e-05
 Reference value :  1.41709e-05
 Reference value :  1.42501e-05
 Reference value :  1.42501e-05
 Reference value :  1.42501e-05
 Reference value :  1.42502e-05
 Reference value :  1.42502e-05
 Reference value :  1.42502e-05
 Reference value :  1.42502e-05
 Reference value :  1.42502e-05
 Reference value :  1.42502e-05
 Reference value :  1.42502e-05
 Reference value :  1.42502e-05
 Reference value :  1.42503e-05
 Reference value :  1.42504e-05
 Reference value :  1.42506e-05
 Reference value :  1.42509e-05
 Reference value :  1.42515e-05
 Reference value :  1.42522e-05
 Reference value :  1.42529e-05
 Reference value :  1.42537e-05
 Reference value :  1.42548e-05
 Reference value :  1.42557e-05
 Reference value :  1.42568e-05
 Reference value :  1.42578e-05
 Reference value :  1.42588e-05
 Reference value :  1.42599e-05
 Reference value :  1.42612e-05
 Reference value :  1.42637e-05
 Reference value :  1.42666e-05
 Reference value :  1.42711e-05
 Reference value :  1.42773e-05
 Reference value :  1.42896e-05
 Reference value :  1.43143e-05
 Reference value :  1.43637e-05
 Reference value :  1.44625e-05
 Reference value :  1.45000e-05
 Reference value :  1.45000e-05
 Reference value :  1.45000e-05
 Reference value :  1.45001e-05
 Reference value :  1.45001e-05
 Reference value :  1.45001e-05
 Reference value :  1.45001e-05
 Reference value :  1.45001e-05
 Reference value :  1.45002e-05
 Reference value :  1.45002e-05
 Reference value :  1.45004e-05
 Reference value :  1.45006e-05
 Reference value :  1.45009e-05
 Reference value :  1.45016e-05
 Reference value :  1.45022e-05
 Reference value :  1.45029e-05
 Reference value :  1.45036e-05
 Reference value :  1.45044e-05
 Reference value :  1.45052e-05
 Reference value :  1.45062e-05
 Reference value :  1.45071e-05
 Reference value :  1.45081e-05
 Reference value :  1.45090e-05
 Reference value :  1.45100e-05
 Reference value :  1.45110e-05
 Reference value :  1.45123e-05
 Reference value :  1.45142e-05
 Reference value :  1.45173e-05
 Reference value :  1.45203e-05
 Reference value :  1.45227e-05
 Reference value :  1.45247e-05
 Reference value :  1.45267e-05
 Reference value :  1.45287e-05
 Reference value :  1.45307e-05
 Reference value :  1.45330e-05
 Reference value :  1.45353e-05
 Reference value :  1.45386e-05
 Reference value :  1.45430e-05
 Reference value :  1.45517e-05
 Reference value :  1.45639e-05
 Reference value :  1.45768e-05
 Reference value :  1.45923e-05
 Reference value :  1.46177e-05
 Reference value :  1.46534e-05
 Reference value :  1.47247e-05
 Reference value :  1.47501e-05
 Reference value :  1.47501e-05
 Reference value :  1.47501e-05
 Reference value :  1.47502e-05
 Reference value :  1.47502e-05
 Reference value :  1.47502e-05
 Reference value :  1.47502e-05
 Reference value :  1.47502e-05
 Reference value :  1.47502e-05
 Reference value :  1.47502e-05
 Reference value :  1.47502e-05
 Reference value :  1.47503e-05
 Reference value :  1.47504e-05
 Reference value :  1.47506e-05
 Reference value :  1.47509e-05
 Reference value :  1.47515e-05
 Reference value :  1.47522e-05
 Reference value :  1.47529e-05
 Reference value :  1.47538e-05
 Reference value :  1.47548e-05
 Reference value :  1.47558e-05
 Reference value :  1.47569e-05
 Reference value :  1.47580e-05
 Reference value :  1.47590e-05
 Reference value :  1.47608e-05
 Reference value :  1.47626e-05
 Reference value :  1.47654e-05
 Reference value :  1.47689e-05
 Reference value :  1.47742e-05
 Reference value :  1.47847e-05
 Reference value :  1.48030e-05
 Reference value :  1.48363e-05
 Reference value :  1.49028e-05
 Reference value :  1.50000e-05
 Reference value :  1.50000e-05
 Reference value :  1.50000e-05
 Reference value :  1.50001e-05
 Reference value :  1.50001e-05
 Reference value :  1.50001e-05
 Reference value :  1.50001e-05
 Reference value :  1.50001e-05
 Reference value :  1.50002e-05
 Reference value :  1.50002e-05
 Reference value :  1.50004e-05
 Reference value :  1.50006e-05
 Reference value :  1.50009e-05
 Reference value :  1.50016e-05
 Reference value :  1.50022e-05
 Reference value :  1.50029e-05
 Reference value :  1.50036e-05
 Reference value :  1.50044e-05
 Reference value :  1.50052e-05
 Reference value :  1.50061e-05
 Reference value :  1.50071e-05
 Reference value :  1.50085e-05
 Reference value :  1.50098e-05
 Reference value :  1.50114e-05
 Reference value :  1.50129e-05
 Reference value :  1.50145e-05
 Reference value :  1.50159e-05
 Reference value :  1.50175e-05
 Reference value :  1.50191e-05
 Reference value :  1.50210e-05
 Reference value :  1.50248e-05
 Reference value :  1.50305e-05
 Reference value :  1.50418e-05
 Reference value :  1.50644e-05
 Reference value :  1.51096e-05
 Reference value :  1.52001e-05
 Reference value :  1.52501e-05
 Reference value :  1.52501e-05
 Reference value :  1.52501e-05
 Reference value :  1.52502e-05
 Reference value :  1.52502e-05
 Reference value :  1.52502e-05
 Reference value :  1.52502e-05
 Reference value :  1.52502e-05
 Reference value :  1.52502e-05
 Reference value :  1.52502e-05
 Reference value :  1.52502e-05
 Reference value :  1.52503e-05
 Reference value :  1.52504e-05
 Reference value :  1.52506e-05
 Reference value :  1.52509e-05
 Reference value :  1.52515e-05
 Reference value :  1.52522e-05
 Reference value :  1.52529e-05
 Reference value :  1.52537e-05
 Reference value :  1.52548e-05
 Reference value :  1.52557e-05
 Reference value :  1.52568e-05
 Reference value :  1.52578e-05
 Reference value :  1.52588e-05
 Reference value :  1.52599e-05
 Reference value :  1.52612e-05
 Reference value :  1.52637e-05
 Reference value :  1.52665e-05
 Reference value :  1.52710e-05
 Reference value :  1.52771e-05
 Reference value :  1.52892e-05
 Reference value :  1.53135e-05
 Reference value :  1.53621e-05
 Reference value :  1.54593e-05
 Reference value :  1.55000e-05
 Reference value :  1.55006e-05
 Reference value :  1.55017e-05
 Reference value :  1.55024e-05
 Reference value :  1.55029e-05
 Reference value :  1.55036e-05
 Reference value :  1.55044e-05
 Reference value :  1.55053e-05
 Reference value :  1.55062e-05
 Reference value :  1.55072e-05
 Reference value :  1.55084e-05
 Reference value :  1.55093e-05
 Reference value :  1.55103e-05
 Reference value :  1.55117e-05
 Reference value :  1.55130e-05
 Reference value :  1.55154e-05
 Reference value :  1.55182e-05
 Reference value :  1.55209e-05
 Reference value :  1.55237e-05
 Reference value :  1.55258e-05
 Reference value :  1.55277e-05
 Reference value :  1.55293e-05
 Reference value :  1.55312e-05
 Reference value :  1.55333e-05
 Reference value :  1.55362e-05
 Reference value :  1.55390e-05
 Reference value :  1.55444e-05
 Reference value :  1.55499e-05
 Reference value :  1.55575e-05
 Reference value :  1.55661e-05
 Reference value :  1.55832e-05
 Reference value :  1.56096e-05
 Reference value :  1.56595e-05
 Reference value :  1.57499e-05
 Reference value :  1.57501e-05
 Reference value :  1.57501e-05
 Reference value :  1.57501e-05
 Reference value :  1.57502e-05
 Reference value :  1.57502e-05
 Reference value :  1.57502e-05
 Reference value :  1.57502e-05
 Reference value :  1.57502e-05
 Reference value :  1.57502e-05
 Reference value :  1.57502e-05
 Reference value :  1.57502e-05
 Reference value :  1.57503e-05
 Reference value :  1.57504e-05
 Reference value :  1.57506e-05
 Reference value :  1.57509e-05
 Reference value :  1.57515e-05
 Reference value :  1.57522e-05
 Reference value :  1.57529e-05
 Reference value :  1.57537e-05
 Reference value :  1.57548e-05
 Reference value :  1.57557e-05
 Reference value :  1.57568e-05
 Reference value :  1.57579e-05
 Reference value :  1.57590e-05
 Reference value :  1.57608e-05
 Reference value :  1.57625e-05
 Reference value :  1.57653e-05
 Reference value :  1.57688e-05
 Reference value :  1.57740e-05
 Reference value :  1.57845e-05
 Reference value :  1.58031e-05
 Reference value :  1.58369e-05
 Reference value :  1.59046e-05
 Reference value :  1.60000e-05
[...]
 Reference value :  1.74500e-04
 Reference value :  1.74500e-04
 Reference value :  1.74500e-04
 Reference value :  1.74500e-04
 Reference value :  1.74500e-04
 Reference value :  1.74500e-04
 Reference value :  1.74500e-04
 Reference value :  1.74500e-04
 Reference value :  1.74500e-04
 Reference value :  1.74501e-04
 Reference value :  1.74501e-04
 Reference value :  1.74502e-04
 Reference value :  1.74502e-04
 Reference value :  1.74503e-04
 Reference value :  1.74504e-04
 Reference value :  1.74504e-04
 Reference value :  1.74505e-04
 Reference value :  1.74506e-04
 Reference value :  1.74507e-04
 Reference value :  1.74508e-04
 Reference value :  1.74510e-04
 Reference value :  1.74511e-04
 Reference value :  1.74513e-04
 Reference value :  1.74514e-04
 Reference value :  1.74516e-04
 Reference value :  1.74517e-04
 Reference value :  1.74519e-04
 Reference value :  1.74521e-04
 Reference value :  1.74525e-04
 Reference value :  1.74531e-04
 Reference value :  1.74542e-04
 Reference value :  1.74566e-04
 Reference value :  1.74614e-04
 Reference value :  1.74709e-04
 Reference value :  1.74750e-04
 Reference value :  1.74750e-04
 Reference value :  1.74750e-04
 Reference value :  1.74750e-04
 Reference value :  1.74750e-04
 Reference value :  1.74750e-04
 Reference value :  1.74750e-04
 Reference value :  1.74750e-04
 Reference value :  1.74750e-04
 Reference value :  1.74750e-04
 Reference value :  1.74750e-04
 Reference value :  1.74750e-04
 Reference value :  1.74750e-04
 Reference value :  1.74751e-04
 Reference value :  1.74751e-04
 Reference value :  1.74752e-04
 Reference value :  1.74752e-04
 Reference value :  1.74753e-04
 Reference value :  1.74754e-04
 Reference value :  1.74755e-04
 Reference value :  1.74756e-04
 Reference value :  1.74757e-04
 Reference value :  1.74758e-04
 Reference value :  1.74759e-04
 Reference value :  1.74760e-04
 Reference value :  1.74761e-04
 Reference value :  1.74764e-04
 Reference value :  1.74766e-04
 Reference value :  1.74771e-04
 Reference value :  1.74777e-04
 Reference value :  1.74789e-04
 Reference value :  1.74813e-04
 Reference value :  1.74861e-04
 Reference value :  1.74956e-04
 Reference value :  1.75000e-04
 Reference value :  1.75000e-04
 Reference value :  1.75000e-04
 Reference value :  1.75000e-04
 Reference value :  1.75000e-04
 Reference value :  1.75000e-04
 Reference value :  1.75000e-04
 Reference value :  1.75000e-04
 Reference value :  1.75000e-04
 Reference value :  1.75000e-04
 Reference value :  1.75000e-04
 Reference value :  1.75001e-04
 Reference value :  1.75001e-04
 Reference value :  1.75002e-04
 Reference value :  1.75002e-04
 Reference value :  1.75003e-04
 Reference value :  1.75004e-04
 Reference value :  1.75004e-04
 Reference value :  1.75005e-04
 Reference value :  1.75006e-04
 Reference value :  1.75007e-04
 Reference value :  1.75008e-04
 Reference value :  1.75009e-04
 Reference value :  1.75010e-04
 Reference value :  1.75011e-04
 Reference value :  1.75012e-04
 Reference value :  1.75014e-04
 Reference value :  1.75017e-04
 Reference value :  1.75020e-04
 Reference value :  1.75023e-04
 Reference value :  1.75025e-04
 Reference value :  1.75026e-04
 Reference value :  1.75028e-04
 Reference value :  1.75030e-04
 Reference value :  1.75033e-04
 Reference value :  1.75035e-04
 Reference value :  1.75038e-04
 Reference value :  1.75043e-04
 Reference value :  1.75050e-04
 Reference value :  1.75058e-04
 Reference value :  1.75066e-04
 Reference value :  1.75075e-04
 Reference value :  1.75082e-04
 Reference value :  1.75089e-04
 Reference value :  1.75097e-04
 Reference value :  1.75105e-04
 Reference value :  1.75112e-04
 Reference value :  1.75121e-04
 Reference value :  1.75130e-04
 Reference value :  1.75145e-04
 Reference value :  1.75168e-04
 Reference value :  1.75209e-04
 Reference value :  1.75250e-04
 Reference value :  1.75250e-04
 Reference value :  1.75250e-04
 Reference value :  1.75250e-04
 Reference value :  1.75250e-04
 Reference value :  1.75250e-04
 Reference value :  1.75250e-04
 Reference value :  1.75250e-04
 Reference value :  1.75250e-04
 Reference value :  1.75250e-04
 Reference value :  1.75250e-04
 Reference value :  1.75250e-04
 Reference value :  1.75250e-04
 Reference value :  1.75251e-04
 Reference value :  1.75251e-04
 Reference value :  1.75252e-04
 Reference value :  1.75252e-04
 Reference value :  1.75253e-04
 Reference value :  1.75254e-04
 Reference value :  1.75255e-04
 Reference value :  1.75256e-04
 Reference value :  1.75257e-04
 Reference value :  1.75258e-04
 Reference value :  1.75259e-04
 Reference value :  1.75260e-04
 Reference value :  1.75262e-04
 Reference value :  1.75265e-04
 Reference value :  1.75268e-04
 Reference value :  1.75273e-04
 Reference value :  1.75283e-04
 Reference value :  1.75302e-04
 Reference value :  1.75321e-04
 Reference value :  1.75335e-04
 Reference value :  1.75348e-04
 Reference value :  1.75363e-04
 Reference value :  1.75377e-04
 Reference value :  1.75392e-04
 Reference value :  1.75420e-04
 Reference value :  1.75461e-04
 Reference value :  1.75500e-04
 Reference value :  1.75500e-04
 Reference value :  1.75500e-04
 Reference value :  1.75500e-04
 Reference value :  1.75500e-04
 Reference value :  1.75500e-04
 Reference value :  1.75500e-04
 Reference value :  1.75500e-04
 Reference value :  1.75500e-04
 Reference value :  1.75500e-04
 Reference value :  1.75500e-04
 Reference value :  1.75501e-04
 Reference value :  1.75501e-04
 Reference value :  1.75502e-04
 Reference value :  1.75502e-04
 Reference value :  1.75503e-04
 Reference value :  1.75504e-04
 Reference value :  1.75504e-04
 Reference value :  1.75505e-04
 Reference value :  1.75506e-04
 Reference value :  1.75507e-04
 Reference value :  1.75509e-04
 Reference value :  1.75510e-04
 Reference value :  1.75511e-04
 Reference value :  1.75513e-04
 Reference value :  1.75515e-04
 Reference value :  1.75516e-04
 Reference value :  1.75518e-04
 Reference value :  1.75520e-04
 Reference value :  1.75522e-04
 Reference value :  1.75525e-04
 Reference value :  1.75531e-04
 Reference value :  1.75541e-04
 Reference value :  1.75560e-04
 Reference value :  1.75597e-04
 Reference value :  1.75670e-04
 Reference value :  1.75750e-04
 Reference value :  1.75750e-04
 Reference value :  1.75750e-04
 Reference value :  1.75750e-04
 Reference value :  1.75750e-04
 Reference value :  1.75750e-04
 Reference value :  1.75750e-04
 Reference value :  1.75750e-04
 Reference value :  1.75750e-04
 Reference value :  1.75750e-04
 Reference value :  1.75750e-04
 Reference value :  1.75750e-04
 Reference value :  1.75750e-04
 Reference value :  1.75751e-04
 Reference value :  1.75751e-04
 Reference value :  1.75752e-04
 Reference value :  1.75752e-04
 Reference value :  1.75753e-04
 Reference value :  1.75754e-04
 Reference value :  1.75755e-04
 Reference value :  1.75756e-04
 Reference value :  1.75757e-04
 Reference value :  1.75758e-04
 Reference value :  1.75759e-04
 Reference value :  1.75760e-04
 Reference value :  1.75761e-04
 Reference value :  1.75764e-04
 Reference value :  1.75766e-04
 Reference value :  1.75771e-04
 Reference value :  1.75777e-04
 Reference value :  1.75789e-04
 Reference value :  1.75813e-04
 Reference value :  1.75862e-04
 Reference value :  1.75959e-04
 Reference value :  1.76000e-04
 Reference value :  1.76000e-04
 Reference value :  1.76000e-04
 Reference value :  1.76000e-04
 Reference value :  1.76000e-04
 Reference value :  1.76000e-04
 Reference value :  1.76000e-04
 Reference value :  1.76000e-04
 Reference value :  1.76000e-04
 Reference value :  1.76000e-04
 Reference value :  1.76000e-04
 Reference value :  1.76001e-04
 Reference value :  1.76001e-04
 Reference value :  1.76002e-04
 Reference value :  1.76002e-04
 Reference value :  1.76003e-04
 Reference value :  1.76004e-04
 Reference value :  1.76004e-04
 Reference value :  1.76005e-04
 Reference value :  1.76006e-04
 Reference value :  1.76007e-04
 Reference value :  1.76008e-04
 Reference value :  1.76009e-04
 Reference value :  1.76010e-04
 Reference value :  1.76011e-04
 Reference value :  1.76012e-04
 Reference value :  1.76014e-04
 Reference value :  1.76017e-04
 Reference value :  1.76020e-04
 Reference value :  1.76023e-04
 Reference value :  1.76025e-04
 Reference value :  1.76027e-04
 Reference value :  1.76029e-04
 Reference value :  1.76031e-04
 Reference value :  1.76033e-04
 Reference value :  1.76035e-04
 Reference value :  1.76039e-04
 Reference value :  1.76043e-04
 Reference value :  1.76049e-04
 Reference value :  1.76056e-04
 Reference value :  1.76063e-04
 Reference value :  1.76070e-04
 Reference value :  1.76076e-04
 Reference value :  1.76083e-04
 Reference value :  1.76090e-04
 Reference value :  1.76098e-04
 Reference value :  1.76105e-04
 Reference value :  1.76113e-04
 Reference value :  1.76130e-04
 Reference value :  1.76155e-04
 Reference value :  1.76201e-04
 Reference value :  1.76248e-04
 Reference value :  1.76250e-04
 Reference value :  1.76250e-04
 Reference value :  1.76250e-04
 Reference value :  1.76250e-04
 Reference value :  1.76250e-04
 Reference value :  1.76250e-04
 Reference value :  1.76250e-04
 Reference value :  1.76250e-04
 Reference value :  1.76250e-04
 Reference value :  1.76250e-04
 Reference value :  1.76250e-04
 Reference value :  1.76250e-04
 Reference value :  1.76250e-04
 Reference value :  1.76251e-04
 Reference value :  1.76251e-04
 Reference value :  1.76252e-04
 Reference value :  1.76252e-04
 Reference value :  1.76253e-04
 Reference value :  1.76254e-04
 Reference value :  1.76255e-04
 Reference value :  1.76256e-04
 Reference value :  1.76257e-04
 Reference value :  1.76258e-04
 Reference value :  1.76259e-04
 Reference value :  1.76260e-04
 Reference value :  1.76262e-04
 Reference value :  1.76265e-04
 Reference value :  1.76268e-04
 Reference value :  1.76273e-04
 Reference value :  1.76283e-04
 Reference value :  1.76301e-04
 Reference value :  1.76339e-04
 Reference value :  1.76415e-04
 Reference value :  1.76500e-04
 Reference value :  1.76500e-04
 Reference value :  1.76500e-04
 Reference value :  1.76500e-04
 Reference value :  1.76500e-04
 Reference value :  1.76500e-04
 Reference value :  1.76500e-04
 Reference value :  1.76500e-04
 Reference value :  1.76500e-04
 Reference value :  1.76500e-04
 Reference value :  1.76500e-04
 Reference value :  1.76501e-04
 Reference value :  1.76501e-04
 Reference value :  1.76502e-04
 Reference value :  1.76502e-04
 Reference value :  1.76503e-04
 Reference value :  1.76504e-04
 Reference value :  1.76504e-04
 Reference value :  1.76505e-04
 Reference value :  1.76506e-04
 Reference value :  1.76507e-04
 Reference value :  1.76508e-04
 Reference value :  1.76510e-04
 Reference value :  1.76511e-04
 Reference value :  1.76513e-04
 Reference value :  1.76514e-04
 Reference value :  1.76515e-04
 Reference value :  1.76517e-04
 Reference value :  1.76519e-04
 Reference value :  1.76520e-04
 Reference value :  1.76524e-04
 Reference value :  1.76531e-04
 Reference value :  1.76544e-04
 Reference value :  1.76571e-04
 Reference value :  1.76623e-04
 Reference value :  1.76728e-04
 Reference value :  1.76750e-04
 Reference value :  1.76750e-04
 Reference value :  1.76750e-04
 Reference value :  1.76750e-04
 Reference value :  1.76750e-04
 Reference value :  1.76750e-04
 Reference value :  1.76750e-04
 Reference value :  1.76750e-04
 Reference value :  1.76750e-04
 Reference value :  1.76750e-04
 Reference value :  1.76750e-04
 Reference value :  1.76750e-04
 Reference value :  1.76750e-04
 Reference value :  1.76751e-04
 Reference value :  1.76751e-04
 Reference value :  1.76752e-04
 Reference value :  1.76752e-04
 Reference value :  1.76753e-04
 Reference value :  1.76754e-04
 Reference value :  1.76755e-04
 Reference value :  1.76756e-04
 Reference value :  1.76757e-04
 Reference value :  1.76758e-04
 Reference value :  1.76759e-04
 Reference value :  1.76760e-04
 Reference value :  1.76761e-04
 Reference value :  1.76762e-04
 Reference value :  1.76764e-04
 Reference value :  1.76767e-04
 Reference value :  1.76769e-04
 Reference value :  1.76773e-04
 Reference value :  1.76778e-04
 Reference value :  1.76789e-04
 Reference value :  1.76808e-04
 Reference value :  1.76847e-04
 Reference value :  1.76925e-04
 Reference value :  1.77000e-04
 Reference value :  1.77000e-04
 Reference value :  1.77000e-04
 Reference value :  1.77000e-04
 Reference value :  1.77000e-04
 Reference value :  1.77000e-04
 Reference value :  1.77000e-04
 Reference value :  1.77000e-04
 Reference value :  1.77000e-04
 Reference value :  1.77000e-04
 Reference value :  1.77000e-04
 Reference value :  1.77001e-04
 Reference value :  1.77001e-04
 Reference value :  1.77002e-04
 Reference value :  1.77002e-04
 Reference value :  1.77003e-04
 Reference value :  1.77004e-04
 Reference value :  1.77004e-04
 Reference value :  1.77005e-04
 Reference value :  1.77006e-04
 Reference value :  1.77007e-04
 Reference value :  1.77008e-04
 Reference value :  1.77009e-04
 Reference value :  1.77010e-04
 Reference value :  1.77011e-04
 Reference value :  1.77012e-04
 Reference value :  1.77014e-04
 Reference value :  1.77016e-04
 Reference value :  1.77018e-04
 Reference value :  1.77019e-04
 Reference value :  1.77021e-04
 Reference value :  1.77023e-04
 Reference value :  1.77024e-04
 Reference value :  1.77026e-04
 Reference value :  1.77028e-04
 Reference value :  1.77029e-04
 Reference value :  1.77031e-04
 Reference value :  1.77033e-04
 Reference value :  1.77035e-04
 Reference value :  1.77038e-04
 Reference value :  1.77043e-04
 Reference value :  1.77048e-04
 Reference value :  1.77055e-04
 Reference value :  1.77063e-04
 Reference value :  1.77078e-04
 Reference value :  1.77102e-04
 Reference value :  1.77145e-04
 Reference value :  1.77186e-04
 Reference value :  1.77210e-04
 Reference value :  1.77238e-04
 Reference value :  1.77250e-04
 Reference value :  1.77250e-04
 Reference value :  1.77250e-04
 Reference value :  1.77250e-04
 Reference value :  1.77250e-04
 Reference value :  1.77250e-04
 Reference value :  1.77250e-04
 Reference value :  1.77250e-04
 Reference value :  1.77250e-04
 Reference value :  1.77250e-04
 Reference value :  1.77250e-04
 Reference value :  1.77250e-04
 Reference value :  1.77250e-04
 Reference value :  1.77251e-04
 Reference value :  1.77251e-04
 Reference value :  1.77252e-04
 Reference value :  1.77252e-04
 Reference value :  1.77253e-04
 Reference value :  1.77254e-04
 Reference value :  1.77255e-04
 Reference value :  1.77256e-04
 Reference value :  1.77257e-04
 Reference value :  1.77258e-04
 Reference value :  1.77259e-04
 Reference value :  1.77261e-04
 Reference value :  1.77262e-04
 Reference value :  1.77265e-04
 Reference value :  1.77268e-04
 Reference value :  1.77273e-04
 Reference value :  1.77283e-04
 Reference value :  1.77302e-04
 Reference value :  1.77339e-04
 Reference value :  1.77414e-04
 Reference value :  1.77500e-04
 Reference value :  1.77500e-04
 Reference value :  1.77500e-04
 Reference value :  1.77500e-04
 Reference value :  1.77500e-04
 Reference value :  1.77500e-04
 Reference value :  1.77500e-04
 Reference value :  1.77500e-04
 Reference value :  1.77500e-04
 Reference value :  1.77500e-04
 Reference value :  1.77500e-04
 Reference value :  1.77501e-04
 Reference value :  1.77501e-04
 Reference value :  1.77502e-04
 Reference value :  1.77502e-04
 Reference value :  1.77503e-04
 Reference value :  1.77504e-04
 Reference value :  1.77504e-04
 Reference value :  1.77505e-04
 Reference value :  1.77506e-04
 Reference value :  1.77507e-04
 Reference value :  1.77508e-04
 Reference value :  1.77510e-04
 Reference value :  1.77512e-04
 Reference value :  1.77513e-04
 Reference value :  1.77515e-04
 Reference value :  1.77516e-04
 Reference value :  1.77518e-04
 Reference value :  1.77519e-04
 Reference value :  1.77521e-04
 Reference value :  1.77525e-04
 Reference value :  1.77531e-04
 Reference value :  1.77544e-04
 Reference value :  1.77570e-04
 Reference value :  1.77621e-04
 Reference value :  1.77724e-04
 Reference value :  1.77750e-04
 Reference value :  1.77750e-04
 Reference value :  1.77750e-04
 Reference value :  1.77750e-04
 Reference value :  1.77750e-04
 Reference value :  1.77750e-04
 Reference value :  1.77750e-04
 Reference value :  1.77750e-04
 Reference value :  1.77750e-04
 Reference value :  1.77750e-04
 Reference value :  1.77750e-04
 Reference value :  1.77750e-04
 Reference value :  1.77750e-04
 Reference value :  1.77751e-04
 Reference value :  1.77751e-04
 Reference value :  1.77752e-04
 Reference value :  1.77752e-04
 Reference value :  1.77753e-04
 Reference value :  1.77754e-04
 Reference value :  1.77755e-04
 Reference value :  1.77756e-04
 Reference value :  1.77757e-04
 Reference value :  1.77758e-04
 Reference value :  1.77758e-04
 Reference value :  1.77760e-04
 Reference value :  1.77761e-04
 Reference value :  1.77763e-04
 Reference value :  1.77766e-04
 Reference value :  1.77769e-04
 Reference value :  1.77772e-04
 Reference value :  1.77775e-04
 Reference value :  1.77777e-04
 Reference value :  1.77780e-04
 Reference value :  1.77784e-04
 Reference value :  1.77788e-04
 Reference value :  1.77796e-04
 Reference value :  1.77807e-04
 Reference value :  1.77828e-04
 Reference value :  1.77869e-04
 Reference value :  1.77952e-04
 Reference value :  1.78000e-04
 Reference value :  1.78000e-04
 Reference value :  1.78000e-04
 Reference value :  1.78000e-04
 Reference value :  1.78000e-04
 Reference value :  1.78000e-04
 Reference value :  1.78000e-04
 Reference value :  1.78000e-04
 Reference value :  1.78000e-04
 Reference value :  1.78000e-04
 Reference value :  1.78000e-04
 Reference value :  1.78001e-04
 Reference value :  1.78001e-04
 Reference value :  1.78002e-04
 Reference value :  1.78002e-04
 Reference value :  1.78003e-04
 Reference value :  1.78004e-04
 Reference value :  1.78004e-04
 Reference value :  1.78005e-04
 Reference value :  1.78006e-04
 Reference value :  1.78007e-04
 Reference value :  1.78008e-04
 Reference value :  1.78009e-04
 Reference value :  1.78010e-04
 Reference value :  1.78011e-04
 Reference value :  1.78012e-04
 Reference value :  1.78014e-04
 Reference value :  1.78016e-04
 Reference value :  1.78018e-04
 Reference value :  1.78020e-04
 Reference value :  1.78022e-04
 Reference value :  1.78024e-04
 Reference value :  1.78026e-04
 Reference value :  1.78028e-04
 Reference value :  1.78030e-04
 Reference value :  1.78032e-04
 Reference value :  1.78035e-04
 Reference value :  1.78037e-04
 Reference value :  1.78042e-04
 Reference value :  1.78049e-04
 Reference value :  1.78060e-04
 Reference value :  1.78080e-04
 Reference value :  1.78112e-04
 Reference value :  1.78171e-04
 Reference value :  1.78246e-04
 Reference value :  1.78250e-04
 Reference value :  1.78250e-04
 Reference value :  1.78250e-04
 Reference value :  1.78250e-04
 Reference value :  1.78250e-04
 Reference value :  1.78250e-04
 Reference value :  1.78250e-04
 Reference value :  1.78250e-04
 Reference value :  1.78250e-04
 Reference value :  1.78250e-04
 Reference value :  1.78250e-04
 Reference value :  1.78250e-04
 Reference value :  1.78250e-04
 Reference value :  1.78251e-04
 Reference value :  1.78251e-04
 Reference value :  1.78252e-04
 Reference value :  1.78252e-04
 Reference value :  1.78253e-04
 Reference value :  1.78254e-04
 Reference value :  1.78255e-04
 Reference value :  1.78256e-04
 Reference value :  1.78258e-04
 Reference value :  1.78259e-04
 Reference value :  1.78261e-04
 Reference value :  1.78263e-04
 Reference value :  1.78266e-04
 Reference value :  1.78270e-04
 Reference value :  1.78276e-04
 Reference value :  1.78288e-04
 Reference value :  1.78311e-04
 Reference value :  1.78358e-04
 Reference value :  1.78452e-04
 Reference value :  1.78500e-04
No. of Data Rows : 27806
ngspice-44 done
