
Note: Compatibility modes selected: hs a


Circuit: ** sch_path: /home/ece/cace/sar-adc-using-sky130-pdk/runs/run_2025-09-12_20-59-33/parameters/dnl/run_1/sar_output_dnl.sch

option SCALE: Scale is set to 1e-06 for instance and model parameters
option SCALE: Scale is set to 1e-06 for instance and model parameters
option SCALE: Scale is set to 1e-06 for instance and model parameters
option SCALE: Scale is set to 1e-06 for instance and model parameters
Doing analysis at TEMP = 27.000000 and TNOM = 27.000000

Using KLU as Direct Linear Solver
Operating point simulation skipped by 'uic',
  now using transient initial conditions.
 Reference value :  1.00000e-12
 Reference value :  1.19600e-12
 Reference value :  4.35037e-12
 Reference value :  1.93660e-11
 Reference value :  1.00000e-10
 Reference value :  1.32957e-10
 Reference value :  3.96614e-10
 Reference value :  9.45077e-10
 Reference value :  1.84546e-09
 Reference value :  3.28115e-09
 Reference value :  5.24509e-09
 Reference value :  7.07459e-09
 Reference value :  7.71987e-09
 Reference value :  8.31402e-09
 Reference value :  9.64781e-09
 Reference value :  1.19230e-08
 Reference value :  1.30341e-08
 Reference value :  1.46432e-08
 Reference value :  1.81229e-08
 Reference value :  2.76217e-08
 Reference value :  3.98884e-08
 Reference value :  8.70192e-08
 Reference value :  2.50110e-07
 Reference value :  2.50170e-07
 Reference value :  2.50222e-07
 Reference value :  2.50312e-07
 Reference value :  2.50541e-07
 Reference value :  2.50991e-07
 Reference value :  2.51960e-07
 Reference value :  2.53143e-07
 Reference value :  2.54569e-07
 Reference value :  2.56006e-07
 Reference value :  2.59330e-07
 Reference value :  2.67471e-07
 Reference value :  3.39819e-07
 Reference value :  5.00010e-07
 Reference value :  5.00100e-07
 Reference value :  5.00220e-07
 Reference value :  5.00864e-07
 Reference value :  5.01299e-07
 Reference value :  5.02238e-07
 Reference value :  5.03396e-07
 Reference value :  5.04678e-07
 Reference value :  5.07576e-07
 Reference value :  5.09177e-07
 Reference value :  5.11976e-07
 Reference value :  5.13348e-07
 Reference value :  5.16414e-07
 Reference value :  5.20577e-07
 Reference value :  5.27207e-07
 Reference value :  5.66281e-07
 Reference value :  7.50110e-07
 Reference value :  7.50200e-07
 Reference value :  7.50256e-07
 Reference value :  7.50700e-07
 Reference value :  7.51531e-07
 Reference value :  7.52558e-07
 Reference value :  7.54048e-07
 Reference value :  7.55366e-07
 Reference value :  7.56988e-07
 Reference value :  7.61954e-07
 Reference value :  8.00867e-07
 Reference value :  1.00001e-06
 Reference value :  1.00010e-06
 Reference value :  1.00022e-06
 Reference value :  1.00086e-06
 Reference value :  1.00130e-06
 Reference value :  1.00224e-06
 Reference value :  1.00341e-06
 Reference value :  1.00458e-06
 Reference value :  1.00582e-06
 Reference value :  1.00710e-06
 Reference value :  1.01057e-06
 Reference value :  1.01401e-06
 Reference value :  1.01673e-06
 Reference value :  1.01912e-06
 Reference value :  1.02351e-06
 Reference value :  1.04297e-06
 Reference value :  1.06086e-06
 Reference value :  1.07448e-06
 Reference value :  1.08593e-06
 Reference value :  1.10463e-06
 Reference value :  1.25011e-06
 Reference value :  1.25026e-06
 Reference value :  1.25106e-06
 Reference value :  1.25327e-06
 Reference value :  1.25535e-06
 Reference value :  1.25797e-06
 Reference value :  1.33449e-06
 Reference value :  1.50007e-06
 Reference value :  1.50016e-06
 Reference value :  1.50086e-06
 Reference value :  1.50177e-06
 Reference value :  1.50332e-06
 Reference value :  1.50560e-06
 Reference value :  1.50753e-06
 Reference value :  1.50946e-06
 Reference value :  1.51277e-06
 Reference value :  1.54331e-06
 Reference value :  1.75011e-06
 Reference value :  1.75021e-06
 Reference value :  1.75070e-06
 Reference value :  1.75202e-06
 Reference value :  1.75404e-06
 Reference value :  1.75533e-06
 Reference value :  1.75787e-06
 Reference value :  1.76129e-06
 Reference value :  1.78399e-06
 Reference value :  2.00000e-06
 Reference value :  2.00010e-06
 Reference value :  2.00022e-06
 Reference value :  2.00086e-06
 Reference value :  2.00176e-06
 Reference value :  2.00277e-06
 Reference value :  2.00457e-06
 Reference value :  2.00583e-06
 Reference value :  2.00712e-06
 Reference value :  2.01046e-06
 Reference value :  2.01145e-06
 Reference value :  2.01377e-06
 Reference value :  2.01612e-06
 Reference value :  2.01835e-06
 Reference value :  2.02083e-06
 Reference value :  2.02659e-06
 Reference value :  2.07496e-06
 Reference value :  2.16140e-06
 Reference value :  2.23437e-06
 Reference value :  2.25013e-06
 Reference value :  2.25021e-06
 Reference value :  2.25032e-06
 Reference value :  2.25070e-06
 Reference value :  2.25204e-06
 Reference value :  2.25466e-06
 Reference value :  2.25785e-06
 Reference value :  2.27100e-06
 Reference value :  2.31509e-06
 Reference value :  2.50001e-06
 Reference value :  2.50011e-06
 Reference value :  2.50035e-06
 Reference value :  2.50130e-06
 Reference value :  2.50221e-06
 Reference value :  2.50405e-06
 Reference value :  2.50674e-06
 Reference value :  2.50754e-06
 Reference value :  2.50947e-06
 Reference value :  2.51277e-06
 Reference value :  2.54280e-06
 Reference value :  2.72097e-06
 Reference value :  2.75017e-06
 Reference value :  2.75022e-06
 Reference value :  2.75045e-06
 Reference value :  2.75152e-06
 Reference value :  2.75254e-06
 Reference value :  2.75403e-06
 Reference value :  2.75533e-06
 Reference value :  2.75696e-06
 Reference value :  2.75884e-06
 Reference value :  2.76316e-06
 Reference value :  2.78376e-06
 Reference value :  3.00000e-06
 Reference value :  3.00007e-06
 Reference value :  3.00016e-06
 Reference value :  3.00130e-06
 Reference value :  3.00224e-06
 Reference value :  3.00403e-06
 Reference value :  3.00457e-06
 Reference value :  3.00583e-06
 Reference value :  3.00712e-06
 Reference value :  3.01047e-06
 Reference value :  3.01145e-06
 Reference value :  3.01377e-06
 Reference value :  3.01613e-06
 Reference value :  3.01838e-06
 Reference value :  3.02092e-06
 Reference value :  3.02682e-06
 Reference value :  3.04957e-06
 Reference value :  3.05887e-06
 Reference value :  3.06625e-06
 Reference value :  3.07235e-06
 Reference value :  3.09312e-06
 Reference value :  3.13971e-06
 Reference value :  3.25011e-06
 Reference value :  3.25020e-06
 Reference value :  3.25026e-06
 Reference value :  3.25070e-06
 Reference value :  3.25153e-06
 Reference value :  3.25256e-06
 Reference value :  3.25406e-06
 Reference value :  3.25467e-06
 Reference value :  3.25603e-06
 Reference value :  3.25692e-06
 Reference value :  3.26182e-06
 Reference value :  3.27103e-06
 Reference value :  3.33160e-06
 Reference value :  3.50000e-06
 Reference value :  3.50007e-06
 Reference value :  3.50012e-06
 Reference value :  3.50035e-06
 Reference value :  3.50130e-06
 Reference value :  3.50224e-06
 Reference value :  3.50399e-06
 Reference value :  3.50532e-06
 Reference value :  3.50730e-06
 Reference value :  3.50925e-06
 Reference value :  3.51122e-06
 Reference value :  3.51616e-06
 Reference value :  3.58918e-06
 Reference value :  3.75013e-06
 Reference value :  3.75021e-06
 Reference value :  3.75032e-06
 Reference value :  3.75106e-06
 Reference value :  3.75203e-06
 Reference value :  3.75328e-06
 Reference value :  3.75469e-06
 Reference value :  3.75609e-06
 Reference value :  3.75787e-06
 Reference value :  3.76541e-06
 Reference value :  3.79954e-06
 Reference value :  4.00000e-06
 Reference value :  4.00007e-06
 Reference value :  4.00012e-06
 Reference value :  4.00052e-06
 Reference value :  4.00130e-06
 Reference value :  4.00224e-06
 Reference value :  4.00340e-06
 Reference value :  4.00458e-06
 Reference value :  4.00582e-06
 Reference value :  4.00643e-06
 Reference value :  4.00800e-06
 Reference value :  4.01062e-06
 Reference value :  4.01402e-06
 Reference value :  4.01670e-06
 Reference value :  4.01908e-06
 Reference value :  4.02344e-06
 Reference value :  4.03414e-06
 Reference value :  4.04699e-06
 Reference value :  4.05928e-06
 Reference value :  4.06416e-06
 Reference value :  4.07555e-06
 Reference value :  4.09868e-06
 Reference value :  4.17933e-06
 Reference value :  4.25011e-06
 Reference value :  4.25020e-06
 Reference value :  4.25032e-06
 Reference value :  4.25105e-06
 Reference value :  4.25202e-06
 Reference value :  4.25401e-06
 Reference value :  4.25532e-06
 Reference value :  4.25691e-06
 Reference value :  4.26185e-06
 Reference value :  4.29956e-06
 Reference value :  4.50000e-06
 Reference value :  4.50007e-06
 Reference value :  4.50012e-06
 Reference value :  4.50052e-06
 Reference value :  4.50130e-06
 Reference value :  4.50221e-06
 Reference value :  4.50405e-06
 Reference value :  4.50674e-06
 Reference value :  4.50842e-06
 Reference value :  4.51056e-06
 Reference value :  4.51277e-06
 Reference value :  4.52080e-06
 Reference value :  4.56726e-06
 Reference value :  4.75013e-06
 Reference value :  4.75032e-06
 Reference value :  4.75152e-06
 Reference value :  4.75254e-06
 Reference value :  4.75464e-06
 Reference value :  4.75696e-06
 Reference value :  4.75995e-06
 Reference value :  4.76905e-06
 Reference value :  4.91729e-06
 Reference value :  5.00010e-06
 Reference value :  5.00022e-06
 Reference value :  5.00086e-06
 Reference value :  5.00176e-06
 Reference value :  5.00340e-06
 Reference value :  5.00457e-06
 Reference value :  5.00583e-06
 Reference value :  5.00802e-06
 Reference value :  5.01146e-06
 Reference value :  5.01378e-06
 Reference value :  5.01619e-06
 Reference value :  5.01849e-06
 Reference value :  5.02112e-06
 Reference value :  5.02476e-06
 Reference value :  5.03046e-06
 Reference value :  5.03596e-06
 Reference value :  5.03807e-06
 Reference value :  5.04773e-06
 Reference value :  5.06891e-06
 Reference value :  5.19843e-06
 Reference value :  5.25013e-06
 Reference value :  5.25020e-06
 Reference value :  5.25026e-06
 Reference value :  5.25070e-06
 Reference value :  5.25203e-06
 Reference value :  5.25328e-06
 Reference value :  5.25467e-06
 Reference value :  5.25602e-06
 Reference value :  5.25784e-06
 Reference value :  5.26519e-06
 Reference value :  5.33086e-06
 Reference value :  5.50001e-06
 Reference value :  5.50010e-06
 Reference value :  5.50022e-06
 Reference value :  5.50086e-06
 Reference value :  5.50176e-06
 Reference value :  5.50277e-06
 Reference value :  5.50463e-06
 Reference value :  5.50730e-06
 Reference value :  5.50925e-06
 Reference value :  5.51123e-06
 Reference value :  5.51616e-06
 Reference value :  5.66672e-06
 Reference value :  5.75017e-06
 Reference value :  5.75032e-06
 Reference value :  5.75105e-06
 Reference value :  5.75203e-06
 Reference value :  5.75328e-06
 Reference value :  5.75468e-06
 Reference value :  5.75705e-06
 Reference value :  5.76197e-06
 Reference value :  5.79993e-06
 Reference value :  6.00000e-06
 Reference value :  6.00007e-06
 Reference value :  6.00016e-06
 Reference value :  6.00052e-06
 Reference value :  6.00176e-06
 Reference value :  6.00277e-06
 Reference value :  6.00458e-06
 Reference value :  6.00582e-06
 Reference value :  6.00711e-06
 Reference value :  6.01062e-06
 Reference value :  6.01402e-06
 Reference value :  6.01537e-06
 Reference value :  6.01796e-06
 Reference value :  6.01908e-06
 Reference value :  6.02161e-06
 Reference value :  6.02864e-06
 Reference value :  6.04651e-06
 Reference value :  6.05993e-06
 Reference value :  6.07271e-06
 Reference value :  6.10425e-06
 Reference value :  6.16931e-06
 Reference value :  6.25011e-06
 Reference value :  6.25020e-06
 Reference value :  6.25026e-06
 Reference value :  6.25070e-06
 Reference value :  6.25202e-06
 Reference value :  6.25400e-06
 Reference value :  6.25598e-06
 Reference value :  6.25959e-06
 Reference value :  6.29934e-06
 Reference value :  6.50000e-06
 Reference value :  6.50010e-06
 Reference value :  6.50035e-06
 Reference value :  6.50130e-06
 Reference value :  6.50272e-06
 Reference value :  6.50565e-06
 Reference value :  6.50755e-06
 Reference value :  6.50948e-06
 Reference value :  6.51279e-06
 Reference value :  6.52080e-06
 Reference value :  6.56029e-06
 Reference value :  6.64106e-06
 Reference value :  6.75011e-06
 Reference value :  6.75020e-06
 Reference value :  6.75032e-06
 Reference value :  6.75105e-06
 Reference value :  6.75256e-06
 Reference value :  6.75467e-06
 Reference value :  6.75698e-06
 Reference value :  6.76194e-06
 Reference value :  6.79981e-06
 Reference value :  7.00001e-06
 Reference value :  7.00011e-06
 Reference value :  7.00035e-06
 Reference value :  7.00130e-06
 Reference value :  7.00224e-06
 Reference value :  7.00403e-06
 Reference value :  7.00520e-06
 Reference value :  7.00643e-06
 Reference value :  7.00900e-06
 Reference value :  7.01402e-06
 Reference value :  7.01669e-06
 Reference value :  7.01907e-06
 Reference value :  7.02161e-06
 Reference value :  7.02862e-06
 Reference value :  7.03834e-06
 Reference value :  7.04579e-06
 Reference value :  7.05433e-06
 Reference value :  7.09639e-06
 Reference value :  7.25011e-06
 Reference value :  7.25021e-06
 Reference value :  7.25070e-06
 Reference value :  7.25202e-06
 Reference value :  7.25400e-06
 Reference value :  7.25598e-06
 Reference value :  7.25957e-06
 Reference value :  7.29910e-06
 Reference value :  7.50000e-06
 Reference value :  7.50007e-06
 Reference value :  7.50012e-06
 Reference value :  7.50052e-06
 Reference value :  7.50177e-06
 Reference value :  7.50332e-06
 Reference value :  7.50560e-06
 Reference value :  7.50753e-06
 Reference value :  7.50946e-06
 Reference value :  7.51277e-06
 Reference value :  7.54201e-06
 Reference value :  7.75011e-06
 Reference value :  7.75020e-06
 Reference value :  7.75026e-06
 Reference value :  7.75070e-06
 Reference value :  7.75152e-06
 Reference value :  7.75254e-06
 Reference value :  7.75403e-06
 Reference value :  7.75531e-06
 Reference value :  7.75694e-06
 Reference value :  7.75995e-06
 Reference value :  7.76545e-06
 Reference value :  7.79874e-06
 Reference value :  8.00000e-06
 Reference value :  8.00007e-06
 Reference value :  8.00012e-06
 Reference value :  8.00035e-06
 Reference value :  8.00130e-06
 Reference value :  8.00224e-06
 Reference value :  8.00403e-06
 Reference value :  8.00457e-06
 Reference value :  8.00583e-06
 Reference value :  8.00712e-06
 Reference value :  8.01001e-06
 Reference value :  8.01171e-06
 Reference value :  8.01630e-06
 Reference value :  8.02198e-06
 Reference value :  8.03956e-06
 Reference value :  8.06615e-06
 Reference value :  8.07553e-06
 Reference value :  8.11424e-06
 Reference value :  8.17597e-06
 Reference value :  8.25017e-06
 Reference value :  8.25032e-06
 Reference value :  8.25153e-06
 Reference value :  8.25328e-06
 Reference value :  8.25726e-06
 Reference value :  8.27233e-06
 Reference value :  8.43673e-06
 Reference value :  8.50000e-06
 Reference value :  8.50000e-06
 Reference value :  8.50004e-06
 Reference value :  8.50012e-06
 Reference value :  8.50045e-06
 Reference value :  8.50245e-06
 Reference value :  8.50443e-06
 Reference value :  8.50631e-06
 Reference value :  8.51132e-06
 Reference value :  8.52878e-06
 Reference value :  8.53373e-06
 Reference value :  8.54065e-06
 Reference value :  8.54574e-06
 Reference value :  8.55806e-06
 Reference value :  8.58846e-06
 Reference value :  8.75010e-06
 Reference value :  8.75020e-06
 Reference value :  8.75070e-06
 Reference value :  8.75201e-06
 Reference value :  8.75404e-06
 Reference value :  8.75532e-06
 Reference value :  8.75681e-06
 Reference value :  8.76483e-06
 Reference value :  8.88523e-06
 Reference value :  9.00003e-06
 Reference value :  9.00011e-06
 Reference value :  9.00022e-06
 Reference value :  9.00086e-06
 Reference value :  9.00176e-06
 Reference value :  9.00277e-06
 Reference value :  9.00398e-06
 Reference value :  9.00529e-06
 Reference value :  9.00877e-06
 Reference value :  9.01311e-06
 Reference value :  9.01642e-06
 Reference value :  9.02037e-06
 Reference value :  9.03299e-06
 Reference value :  9.17314e-06
 Reference value :  9.25017e-06
 Reference value :  9.25026e-06
 Reference value :  9.25105e-06
 Reference value :  9.25202e-06
 Reference value :  9.25403e-06
 Reference value :  9.25604e-06
 Reference value :  9.26189e-06
 Reference value :  9.33157e-06
 Reference value :  9.50001e-06
 Reference value :  9.50010e-06
 Reference value :  9.50035e-06
 Reference value :  9.50130e-06
 Reference value :  9.50224e-06
 Reference value :  9.50341e-06
 Reference value :  9.50458e-06
 Reference value :  9.50582e-06
 Reference value :  9.50710e-06
 Reference value :  9.51058e-06
 Reference value :  9.51401e-06
 Reference value :  9.51673e-06
 Reference value :  9.51911e-06
 Reference value :  9.52878e-06
 Reference value :  9.55236e-06
 Reference value :  9.57565e-06
 Reference value :  9.59325e-06
 Reference value :  9.63174e-06
 Reference value :  9.75011e-06
 Reference value :  9.75021e-06
 Reference value :  9.75070e-06
 Reference value :  9.75201e-06
 Reference value :  9.75400e-06
 Reference value :  9.75531e-06
 Reference value :  9.75690e-06
 Reference value :  9.76180e-06
 Reference value :  9.78151e-06
 Reference value :  9.99679e-06
 Reference value :  1.00000e-05
 Reference value :  1.00001e-05
 Reference value :  1.00009e-05
 Reference value :  1.00022e-05
 Reference value :  1.00049e-05
 Reference value :  1.00075e-05
 Reference value :  1.00095e-05
 Reference value :  1.00128e-05
 Reference value :  1.00283e-05
 Reference value :  1.02120e-05
 Reference value :  1.02502e-05
 Reference value :  1.02502e-05
 Reference value :  1.02507e-05
 Reference value :  1.02520e-05
 Reference value :  1.02540e-05
 Reference value :  1.02553e-05
 Reference value :  1.02569e-05
 Reference value :  1.02599e-05
 Reference value :  1.02690e-05
 Reference value :  1.02987e-05
 Reference value :  1.05000e-05
 Reference value :  1.05001e-05
 Reference value :  1.05001e-05
 Reference value :  1.05005e-05
 Reference value :  1.05013e-05
 Reference value :  1.05022e-05
 Reference value :  1.05040e-05
 Reference value :  1.05046e-05
 Reference value :  1.05058e-05
 Reference value :  1.05071e-05
 Reference value :  1.05105e-05
 Reference value :  1.05115e-05
 Reference value :  1.05138e-05
 Reference value :  1.05161e-05
 Reference value :  1.05183e-05
 Reference value :  1.05208e-05
 Reference value :  1.05264e-05
 Reference value :  1.05699e-05
 Reference value :  1.06481e-05
 Reference value :  1.07157e-05
 Reference value :  1.07501e-05
 Reference value :  1.07502e-05
 Reference value :  1.07504e-05
 Reference value :  1.07515e-05
 Reference value :  1.07525e-05
 Reference value :  1.07540e-05
 Reference value :  1.07553e-05
 Reference value :  1.07568e-05
 Reference value :  1.07649e-05
 Reference value :  1.07910e-05
 Reference value :  1.08119e-05
 Reference value :  1.09074e-05
 Reference value :  1.10000e-05
 Reference value :  1.10001e-05
 Reference value :  1.10002e-05
 Reference value :  1.10005e-05
 Reference value :  1.10013e-05
 Reference value :  1.10022e-05
 Reference value :  1.10041e-05
 Reference value :  1.10056e-05
 Reference value :  1.10075e-05
 Reference value :  1.10095e-05
 Reference value :  1.10128e-05
 Reference value :  1.10419e-05
 Reference value :  1.12501e-05
 Reference value :  1.12502e-05
 Reference value :  1.12502e-05
 Reference value :  1.12503e-05
 Reference value :  1.12507e-05
 Reference value :  1.12515e-05
 Reference value :  1.12525e-05
 Reference value :  1.12540e-05
 Reference value :  1.12553e-05
 Reference value :  1.12569e-05
 Reference value :  1.12599e-05
 Reference value :  1.12690e-05
 Reference value :  1.13210e-05
 Reference value :  1.15000e-05
 Reference value :  1.15001e-05
 Reference value :  1.15002e-05
 Reference value :  1.15009e-05
 Reference value :  1.15018e-05
 Reference value :  1.15028e-05
 Reference value :  1.15040e-05
 Reference value :  1.15046e-05
 Reference value :  1.15058e-05
 Reference value :  1.15071e-05
 Reference value :  1.15105e-05
 Reference value :  1.15115e-05
 Reference value :  1.15138e-05
 Reference value :  1.15162e-05
 Reference value :  1.15185e-05
 Reference value :  1.15211e-05
 Reference value :  1.15273e-05
 Reference value :  1.15490e-05
 Reference value :  1.15579e-05
 Reference value :  1.15650e-05
 Reference value :  1.15710e-05
 Reference value :  1.15793e-05
 Reference value :  1.15998e-05
 Reference value :  1.17217e-05
 Reference value :  1.17502e-05
 Reference value :  1.17502e-05
 Reference value :  1.17504e-05
 Reference value :  1.17515e-05
 Reference value :  1.17526e-05
 Reference value :  1.17541e-05
 Reference value :  1.17553e-05
 Reference value :  1.17569e-05
 Reference value :  1.17618e-05
 Reference value :  1.17814e-05
 Reference value :  1.19830e-05
 Reference value :  1.20000e-05
 Reference value :  1.20001e-05
 Reference value :  1.20002e-05
 Reference value :  1.20005e-05
 Reference value :  1.20013e-05
 Reference value :  1.20022e-05
 Reference value :  1.20040e-05
 Reference value :  1.20053e-05
 Reference value :  1.20073e-05
 Reference value :  1.20092e-05
 Reference value :  1.20112e-05
 Reference value :  1.20162e-05
 Reference value :  1.20503e-05
 Reference value :  1.22501e-05
 Reference value :  1.22502e-05
 Reference value :  1.22503e-05
 Reference value :  1.22507e-05
 Reference value :  1.22520e-05
 Reference value :  1.22541e-05
 Reference value :  1.22554e-05
 Reference value :  1.22597e-05
 Reference value :  1.23310e-05
 Reference value :  1.25001e-05
 Reference value :  1.25003e-05
 Reference value :  1.25018e-05
 Reference value :  1.25040e-05
 Reference value :  1.25052e-05
 Reference value :  1.25064e-05
 Reference value :  1.25106e-05
 Reference value :  1.25140e-05
 Reference value :  1.25167e-05
 Reference value :  1.25191e-05
 Reference value :  1.25216e-05
 Reference value :  1.25287e-05
 Reference value :  1.25480e-05
 Reference value :  1.25609e-05
 Reference value :  1.25713e-05
 Reference value :  1.26030e-05
 Reference value :  1.27501e-05
 Reference value :  1.27502e-05
 Reference value :  1.27504e-05
 Reference value :  1.27520e-05
 Reference value :  1.27540e-05
 Reference value :  1.27553e-05
 Reference value :  1.27569e-05
 Reference value :  1.27652e-05
 Reference value :  1.28309e-05
 Reference value :  1.30000e-05
 Reference value :  1.30001e-05
 Reference value :  1.30005e-05
 Reference value :  1.30013e-05
 Reference value :  1.30022e-05
 Reference value :  1.30041e-05
 Reference value :  1.30067e-05
 Reference value :  1.30075e-05
 Reference value :  1.30095e-05
 Reference value :  1.30128e-05
 Reference value :  1.30283e-05
 Reference value :  1.32120e-05
 Reference value :  1.32502e-05
 Reference value :  1.32502e-05
 Reference value :  1.32507e-05
 Reference value :  1.32515e-05
 Reference value :  1.32525e-05
 Reference value :  1.32540e-05
 Reference value :  1.32546e-05
 Reference value :  1.32569e-05
 Reference value :  1.32599e-05
 Reference value :  1.32690e-05
 Reference value :  1.34174e-05
 Reference value :  1.35001e-05
 Reference value :  1.35002e-05
 Reference value :  1.35005e-05
 Reference value :  1.35018e-05
 Reference value :  1.35022e-05
 Reference value :  1.35034e-05
 Reference value :  1.35046e-05
 Reference value :  1.35058e-05
 Reference value :  1.35071e-05
 Reference value :  1.35090e-05
 Reference value :  1.35115e-05
 Reference value :  1.35138e-05
 Reference value :  1.35162e-05
 Reference value :  1.35185e-05
 Reference value :  1.35212e-05
 Reference value :  1.35248e-05
 Reference value :  1.35304e-05
 Reference value :  1.35324e-05
 Reference value :  1.35359e-05
 Reference value :  1.35409e-05
 Reference value :  1.35495e-05
 Reference value :  1.35727e-05
 Reference value :  1.36544e-05
 Reference value :  1.37501e-05
 Reference value :  1.37502e-05
 Reference value :  1.37503e-05
 Reference value :  1.37511e-05
 Reference value :  1.37520e-05
 Reference value :  1.37533e-05
 Reference value :  1.37546e-05
 Reference value :  1.37569e-05
 Reference value :  1.37617e-05
 Reference value :  1.37812e-05
 Reference value :  1.38864e-05
 Reference value :  1.40000e-05
 Reference value :  1.40001e-05
 Reference value :  1.40002e-05
 Reference value :  1.40005e-05
 Reference value :  1.40013e-05
 Reference value :  1.40022e-05
 Reference value :  1.40034e-05
 Reference value :  1.40046e-05
 Reference value :  1.40073e-05
 Reference value :  1.40093e-05
 Reference value :  1.40112e-05
 Reference value :  1.40136e-05
 Reference value :  1.40309e-05
 Reference value :  1.42501e-05
 Reference value :  1.42502e-05
 Reference value :  1.42502e-05
 Reference value :  1.42504e-05
 Reference value :  1.42515e-05
 Reference value :  1.42526e-05
 Reference value :  1.42541e-05
 Reference value :  1.42554e-05
 Reference value :  1.42579e-05
 Reference value :  1.42655e-05
 Reference value :  1.43847e-05
 Reference value :  1.45001e-05
 Reference value :  1.45002e-05
 Reference value :  1.45013e-05
 Reference value :  1.45028e-05
 Reference value :  1.45046e-05
 Reference value :  1.45058e-05
 Reference value :  1.45071e-05
 Reference value :  1.45106e-05
 Reference value :  1.45140e-05
 Reference value :  1.45167e-05
 Reference value :  1.45191e-05
 Reference value :  1.45234e-05
 Reference value :  1.45339e-05
 Reference value :  1.45474e-05
 Reference value :  1.45618e-05
 Reference value :  1.45820e-05
 Reference value :  1.46463e-05
 Reference value :  1.47227e-05
 Reference value :  1.47501e-05
 Reference value :  1.47502e-05
 Reference value :  1.47503e-05
 Reference value :  1.47504e-05
 Reference value :  1.47511e-05
 Reference value :  1.47520e-05
 Reference value :  1.47533e-05
 Reference value :  1.47546e-05
 Reference value :  1.47560e-05
 Reference value :  1.47578e-05
 Reference value :  1.47618e-05
 Reference value :  1.47690e-05
 Reference value :  1.47897e-05
 Reference value :  1.48281e-05
 Reference value :  1.49618e-05
 Reference value :  1.50001e-05
 Reference value :  1.50001e-05
 Reference value :  1.50003e-05
 Reference value :  1.50013e-05
 Reference value :  1.50022e-05
 Reference value :  1.50040e-05
 Reference value :  1.50053e-05
 Reference value :  1.50073e-05
 Reference value :  1.50093e-05
 Reference value :  1.50112e-05
 Reference value :  1.50136e-05
 Reference value :  1.50309e-05
 Reference value :  1.52501e-05
 Reference value :  1.52502e-05
 Reference value :  1.52502e-05
 Reference value :  1.52504e-05
 Reference value :  1.52515e-05
 Reference value :  1.52526e-05
 Reference value :  1.52541e-05
 Reference value :  1.52547e-05
 Reference value :  1.52561e-05
 Reference value :  1.52579e-05
 Reference value :  1.52715e-05
 Reference value :  1.53310e-05
 Reference value :  1.55004e-05
 Reference value :  1.55016e-05
 Reference value :  1.55024e-05
 Reference value :  1.55035e-05
 Reference value :  1.55047e-05
 Reference value :  1.55059e-05
 Reference value :  1.55071e-05
 Reference value :  1.55092e-05
 Reference value :  1.55127e-05
 Reference value :  1.55142e-05
 Reference value :  1.55166e-05
 Reference value :  1.55189e-05
 Reference value :  1.55214e-05
 Reference value :  1.55282e-05
 Reference value :  1.55387e-05
 Reference value :  1.55456e-05
 Reference value :  1.55552e-05
 Reference value :  1.55610e-05
 Reference value :  1.55867e-05
 Reference value :  1.56276e-05
 Reference value :  1.57501e-05
 Reference value :  1.57501e-05
 Reference value :  1.57502e-05
 Reference value :  1.57503e-05
 Reference value :  1.57507e-05
 Reference value :  1.57515e-05
 Reference value :  1.57526e-05
 Reference value :  1.57540e-05
 Reference value :  1.57547e-05
 Reference value :  1.57560e-05
 Reference value :  1.57580e-05
 Reference value :  1.57656e-05
 Reference value :  1.58007e-05
 Reference value :  1.59782e-05
 Reference value :  1.60000e-05
 Reference value :  1.60001e-05
 Reference value :  1.60002e-05
 Reference value :  1.60005e-05
 Reference value :  1.60013e-05
 Reference value :  1.60022e-05
 Reference value :  1.60041e-05
 Reference value :  1.60056e-05
 Reference value :  1.60075e-05
 Reference value :  1.60095e-05
 Reference value :  1.60116e-05
 Reference value :  1.60128e-05
 Reference value :  1.60207e-05
 Reference value :  1.60665e-05
 Reference value :  1.62501e-05
 Reference value :  1.62502e-05
 Reference value :  1.62502e-05
 Reference value :  1.62504e-05
 Reference value :  1.62510e-05
 Reference value :  1.62520e-05
 Reference value :  1.62540e-05
 Reference value :  1.62553e-05
 Reference value :  1.62570e-05
 Reference value :  1.62588e-05
 Reference value :  1.62632e-05
 Reference value :  1.62753e-05
 Reference value :  1.63591e-05
 Reference value :  1.65000e-05
 Reference value :  1.65001e-05
 Reference value :  1.65002e-05
 Reference value :  1.65005e-05
 Reference value :  1.65013e-05
 Reference value :  1.65022e-05
 Reference value :  1.65034e-05
 Reference value :  1.65046e-05
 Reference value :  1.65058e-05
 Reference value :  1.65064e-05
 Reference value :  1.65090e-05
 Reference value :  1.65108e-05
 Reference value :  1.65140e-05
 Reference value :  1.65185e-05
 Reference value :  1.65292e-05
 Reference value :  1.65400e-05
 Reference value :  1.65443e-05
 Reference value :  1.65534e-05
 Reference value :  1.65769e-05
 Reference value :  1.67066e-05
 Reference value :  1.67502e-05
 Reference value :  1.67502e-05
 Reference value :  1.67504e-05
 Reference value :  1.67515e-05
 Reference value :  1.67525e-05
 Reference value :  1.67551e-05
 Reference value :  1.67603e-05
 Reference value :  1.67939e-05
 Reference value :  1.70000e-05
 Reference value :  1.70000e-05
 Reference value :  1.70000e-05
 Reference value :  1.70000e-05
 Reference value :  1.70001e-05
 Reference value :  1.70001e-05
 Reference value :  1.70003e-05
 Reference value :  1.70008e-05
 Reference value :  1.70019e-05
 Reference value :  1.70030e-05
 Reference value :  1.70044e-05
 Reference value :  1.70057e-05
 Reference value :  1.70071e-05
 Reference value :  1.70113e-05
 Reference value :  1.70288e-05
 Reference value :  1.70337e-05
 Reference value :  1.70374e-05
 Reference value :  1.70406e-05
 Reference value :  1.70457e-05
 Reference value :  1.70541e-05
 Reference value :  1.70683e-05
 Reference value :  1.71038e-05
 Reference value :  1.72014e-05
 Reference value :  1.72501e-05
 Reference value :  1.72502e-05
 Reference value :  1.72504e-05
 Reference value :  1.72511e-05
 Reference value :  1.72520e-05
 Reference value :  1.72540e-05
 Reference value :  1.72553e-05
 Reference value :  1.72568e-05
 Reference value :  1.72616e-05
 Reference value :  1.72976e-05
 Reference value :  1.75000e-05
 Reference value :  1.75001e-05
 Reference value :  1.75002e-05
 Reference value :  1.75009e-05
 Reference value :  1.75018e-05
 Reference value :  1.75028e-05
 Reference value :  1.75046e-05
 Reference value :  1.75074e-05
 Reference value :  1.75088e-05
 Reference value :  1.75117e-05
 Reference value :  1.75150e-05
 Reference value :  1.75164e-05
 Reference value :  1.75204e-05
 Reference value :  1.75268e-05
 Reference value :  1.75440e-05
 Reference value :  1.76730e-05
 Reference value :  1.77501e-05
 Reference value :  1.77502e-05
 Reference value :  1.77503e-05
 Reference value :  1.77511e-05
 Reference value :  1.77520e-05
 Reference value :  1.77540e-05
 Reference value :  1.77553e-05
 Reference value :  1.77579e-05
 Reference value :  1.77619e-05
 Reference value :  1.77996e-05
 Reference value :  1.79962e-05
 Reference value :  1.80001e-05
 Reference value :  1.80001e-05
 Reference value :  1.80004e-05
 Reference value :  1.80011e-05
 Reference value :  1.80020e-05
 Reference value :  1.80037e-05
 Reference value :  1.80050e-05
 Reference value :  1.80062e-05
 Reference value :  1.80085e-05
 Reference value :  1.80121e-05
 Reference value :  1.80152e-05
 Reference value :  1.80178e-05
 Reference value :  1.80202e-05
 Reference value :  1.80254e-05
 Reference value :  1.80430e-05
 Reference value :  1.80632e-05
 Reference value :  1.80789e-05
 Reference value :  1.80932e-05
 Reference value :  1.81174e-05
 Reference value :  1.82501e-05
 Reference value :  1.82502e-05
 Reference value :  1.82503e-05
 Reference value :  1.82511e-05
 Reference value :  1.82520e-05
 Reference value :  1.82540e-05
 Reference value :  1.82554e-05
 Reference value :  1.82581e-05
 Reference value :  1.82729e-05
 Reference value :  1.83880e-05
 Reference value :  1.85000e-05
 Reference value :  1.85001e-05
 Reference value :  1.85002e-05
 Reference value :  1.85009e-05
 Reference value :  1.85018e-05
 Reference value :  1.85022e-05
 Reference value :  1.85041e-05
 Reference value :  1.85056e-05
 Reference value :  1.85075e-05
 Reference value :  1.85095e-05
 Reference value :  1.85128e-05
 Reference value :  1.85283e-05
 Reference value :  1.87111e-05
 Reference value :  1.87501e-05
 Reference value :  1.87502e-05
 Reference value :  1.87503e-05
 Reference value :  1.87507e-05
 Reference value :  1.87515e-05
 Reference value :  1.87525e-05
 Reference value :  1.87540e-05
 Reference value :  1.87546e-05
 Reference value :  1.87560e-05
 Reference value :  1.87578e-05
 Reference value :  1.87599e-05
 Reference value :  1.87632e-05
 Reference value :  1.87751e-05
 Reference value :  1.88213e-05
 Reference value :  1.90000e-05
 Reference value :  1.90001e-05
 Reference value :  1.90001e-05
 Reference value :  1.90003e-05
 Reference value :  1.90013e-05
 Reference value :  1.90022e-05
 Reference value :  1.90034e-05
 Reference value :  1.90046e-05
 Reference value :  1.90058e-05
 Reference value :  1.90071e-05
 Reference value :  1.90115e-05
 Reference value :  1.90151e-05
 Reference value :  1.90183e-05
 Reference value :  1.90221e-05
 Reference value :  1.90485e-05
 Reference value :  1.91478e-05
 Reference value :  1.92446e-05
 Reference value :  1.92502e-05
 Reference value :  1.92504e-05
 Reference value :  1.92515e-05
 Reference value :  1.92525e-05
 Reference value :  1.92546e-05
 Reference value :  1.92568e-05
 Reference value :  1.92616e-05
 Reference value :  1.92936e-05
 Reference value :  1.93512e-05
 Reference value :  1.95001e-05
 Reference value :  1.95006e-05
 Reference value :  1.95014e-05
 Reference value :  1.95022e-05
 Reference value :  1.95034e-05
 Reference value :  1.95048e-05
 Reference value :  1.95066e-05
 Reference value :  1.95076e-05
 Reference value :  1.95098e-05
 Reference value :  1.95121e-05
 Reference value :  1.95153e-05
 Reference value :  1.95300e-05
 Reference value :  1.96282e-05
 Reference value :  1.97501e-05
 Reference value :  1.97502e-05
 Reference value :  1.97502e-05
 Reference value :  1.97503e-05
 Reference value :  1.97507e-05
 Reference value :  1.97515e-05
 Reference value :  1.97520e-05
 Reference value :  1.97532e-05
 Reference value :  1.97546e-05
 Reference value :  1.97560e-05
 Reference value :  1.97567e-05
 Reference value :  1.97587e-05
 Reference value :  1.97611e-05
 Reference value :  1.97653e-05
 Reference value :  1.97753e-05
 Reference value :  1.98259e-05
 Reference value :  2.00000e-05
 Reference value :  2.00000e-05
 Reference value :  2.00001e-05
 Reference value :  2.00002e-05
 Reference value :  2.00009e-05
 Reference value :  2.00013e-05
 Reference value :  2.00022e-05
 Reference value :  2.00034e-05
 Reference value :  2.00046e-05
 Reference value :  2.00058e-05
 Reference value :  2.00064e-05
 Reference value :  2.00080e-05
 Reference value :  2.00105e-05
 Reference value :  2.00115e-05
 Reference value :  2.00138e-05
 Reference value :  2.00162e-05
 Reference value :  2.00185e-05
 Reference value :  2.00211e-05
 Reference value :  2.00273e-05
 Reference value :  2.00490e-05
 Reference value :  2.00583e-05
 Reference value :  2.00651e-05
 Reference value :  2.00696e-05
 Reference value :  2.00762e-05
 Reference value :  2.01009e-05
 Reference value :  2.01630e-05
 Reference value :  2.02501e-05
 Reference value :  2.02502e-05
 Reference value :  2.02503e-05
 Reference value :  2.02504e-05
 Reference value :  2.02511e-05
 Reference value :  2.02520e-05
 Reference value :  2.02541e-05
 Reference value :  2.02553e-05
 Reference value :  2.02569e-05
 Reference value :  2.02652e-05
 Reference value :  2.03303e-05
 Reference value :  2.05003e-05
 Reference value :  2.05012e-05
 Reference value :  2.05019e-05
 Reference value :  2.05036e-05
 Reference value :  2.05059e-05
 Reference value :  2.05076e-05
 Reference value :  2.05094e-05
 Reference value :  2.05127e-05
 Reference value :  2.05276e-05
 Reference value :  2.06254e-05
 Reference value :  2.07501e-05
 Reference value :  2.07502e-05
 Reference value :  2.07502e-05
 Reference value :  2.07504e-05
 Reference value :  2.07510e-05
 Reference value :  2.07520e-05
 Reference value :  2.07532e-05
 Reference value :  2.07546e-05
 Reference value :  2.07560e-05
 Reference value :  2.07594e-05
 Reference value :  2.07707e-05
 Reference value :  2.08895e-05
 Reference value :  2.10000e-05
 Reference value :  2.10001e-05
 Reference value :  2.10002e-05
 Reference value :  2.10009e-05
 Reference value :  2.10018e-05
 Reference value :  2.10028e-05
 Reference value :  2.10040e-05
 Reference value :  2.10046e-05
 Reference value :  2.10058e-05
 Reference value :  2.10071e-05
 Reference value :  2.10106e-05
 Reference value :  2.10140e-05
 Reference value :  2.10167e-05
 Reference value :  2.10180e-05
 Reference value :  2.10191e-05
 Reference value :  2.10216e-05
 Reference value :  2.10253e-05
 Reference value :  2.10341e-05
 Reference value :  2.10471e-05
 Reference value :  2.10543e-05
 Reference value :  2.10641e-05
 Reference value :  2.10746e-05
 Reference value :  2.11105e-05
 Reference value :  2.12144e-05
 Reference value :  2.12501e-05
 Reference value :  2.12502e-05
 Reference value :  2.12504e-05
 Reference value :  2.12515e-05
 Reference value :  2.12526e-05
 Reference value :  2.12540e-05
 Reference value :  2.12554e-05
 Reference value :  2.12581e-05
 Reference value :  2.12727e-05
 Reference value :  2.14819e-05
 Reference value :  2.15001e-05
 Reference value :  2.15002e-05
 Reference value :  2.15009e-05
 Reference value :  2.15018e-05
 Reference value :  2.15027e-05
 Reference value :  2.15049e-05
 Reference value :  2.15075e-05
 Reference value :  2.15106e-05
 Reference value :  2.15141e-05
 Reference value :  2.15663e-05
 Reference value :  2.17501e-05
 Reference value :  2.17502e-05
 Reference value :  2.17504e-05
 Reference value :  2.17515e-05
 Reference value :  2.17525e-05
 Reference value :  2.17540e-05
 Reference value :  2.17553e-05
 Reference value :  2.17569e-05
 Reference value :  2.17599e-05
 Reference value :  2.17655e-05
 Reference value :  2.17987e-05
 Reference value :  2.20000e-05
 Reference value :  2.20013e-05
 Reference value :  2.20053e-05
 Reference value :  2.20076e-05
 Reference value :  2.20113e-05
 Reference value :  2.20139e-05
 Reference value :  2.20160e-05
 Reference value :  2.20180e-05
 Reference value :  2.20201e-05
 Reference value :  2.20249e-05
 Reference value :  2.20306e-05
 Reference value :  2.20345e-05
 Reference value :  2.20419e-05
 Reference value :  2.20577e-05
 Reference value :  2.21286e-05
 Reference value :  2.22501e-05
 Reference value :  2.22502e-05
 Reference value :  2.22503e-05
 Reference value :  2.22511e-05
 Reference value :  2.22520e-05
 Reference value :  2.22540e-05
 Reference value :  2.22553e-05
 Reference value :  2.22568e-05
 Reference value :  2.22617e-05
 Reference value :  2.22983e-05
 Reference value :  2.25000e-05
 Reference value :  2.25001e-05
 Reference value :  2.25002e-05
 Reference value :  2.25005e-05
 Reference value :  2.25013e-05
 Reference value :  2.25022e-05
 Reference value :  2.25040e-05
 Reference value :  2.25053e-05
 Reference value :  2.25085e-05
 Reference value :  2.25106e-05
 Reference value :  2.25143e-05
 Reference value :  2.25283e-05
 Reference value :  2.26048e-05
 Reference value :  2.27501e-05
 Reference value :  2.27502e-05
 Reference value :  2.27507e-05
 Reference value :  2.27520e-05
 Reference value :  2.27540e-05
 Reference value :  2.27553e-05
 Reference value :  2.27570e-05
 Reference value :  2.27619e-05
 Reference value :  2.27819e-05
 Reference value :  2.29952e-05
 Reference value :  2.30001e-05
 Reference value :  2.30001e-05
 Reference value :  2.30002e-05
 Reference value :  2.30008e-05
 Reference value :  2.30012e-05
 Reference value :  2.30021e-05
 Reference value :  2.30032e-05
 Reference value :  2.30045e-05
 Reference value :  2.30058e-05
 Reference value :  2.30064e-05
 Reference value :  2.30081e-05
 Reference value :  2.30126e-05
 Reference value :  2.30141e-05
 Reference value :  2.30165e-05
 Reference value :  2.30189e-05
 Reference value :  2.30231e-05
 Reference value :  2.30336e-05
 Reference value :  2.30580e-05
 Reference value :  2.30783e-05
 Reference value :  2.30973e-05
 Reference value :  2.31409e-05
 Reference value :  2.31612e-05
 Reference value :  2.32138e-05
 Reference value :  2.32501e-05
 Reference value :  2.32502e-05
 Reference value :  2.32507e-05
 Reference value :  2.32520e-05
 Reference value :  2.32540e-05
 Reference value :  2.32553e-05
 Reference value :  2.32568e-05
 Reference value :  2.32616e-05
 Reference value :  2.32982e-05
 Reference value :  2.34999e-05
 Reference value :  2.35000e-05
 Reference value :  2.35001e-05
 Reference value :  2.35002e-05
 Reference value :  2.35009e-05
 Reference value :  2.35013e-05
 Reference value :  2.35022e-05
 Reference value :  2.35034e-05
 Reference value :  2.35046e-05
 Reference value :  2.35063e-05
 Reference value :  2.35073e-05
 Reference value :  2.35093e-05
 Reference value :  2.35112e-05
 Reference value :  2.35136e-05
 Reference value :  2.35309e-05
 Reference value :  2.36671e-05
 Reference value :  2.37501e-05
 Reference value :  2.37502e-05
 Reference value :  2.37503e-05
 Reference value :  2.37504e-05
 Reference value :  2.37511e-05
 Reference value :  2.37520e-05
 Reference value :  2.37533e-05
 Reference value :  2.37547e-05
 Reference value :  2.37561e-05
 Reference value :  2.37579e-05
 Reference value :  2.37619e-05
 Reference value :  2.37712e-05
 Reference value :  2.38302e-05
 Reference value :  2.40000e-05
 Reference value :  2.40001e-05
 Reference value :  2.40002e-05
 Reference value :  2.40003e-05
 Reference value :  2.40013e-05
 Reference value :  2.40022e-05
 Reference value :  2.40040e-05
 Reference value :  2.40046e-05
 Reference value :  2.40058e-05
 Reference value :  2.40071e-05
 Reference value :  2.40126e-05
 Reference value :  2.40140e-05
 Reference value :  2.40167e-05
 Reference value :  2.40191e-05
 Reference value :  2.40234e-05
 Reference value :  2.40331e-05
 Reference value :  2.40580e-05
 Reference value :  2.40796e-05
 Reference value :  2.41230e-05
 Reference value :  2.42004e-05
 Reference value :  2.42501e-05
 Reference value :  2.42502e-05
 Reference value :  2.42504e-05
 Reference value :  2.42515e-05
 Reference value :  2.42526e-05
 Reference value :  2.42540e-05
 Reference value :  2.42554e-05
 Reference value :  2.42571e-05
 Reference value :  2.42581e-05
 Reference value :  2.42727e-05
 Reference value :  2.43878e-05
 Reference value :  2.45000e-05
 Reference value :  2.45001e-05
 Reference value :  2.45002e-05
 Reference value :  2.45009e-05
 Reference value :  2.45018e-05
 Reference value :  2.45033e-05
 Reference value :  2.45056e-05
 Reference value :  2.45075e-05
 Reference value :  2.45106e-05
 Reference value :  2.45128e-05
 Reference value :  2.45420e-05
 Reference value :  2.47501e-05
 Reference value :  2.47502e-05
 Reference value :  2.47507e-05
 Reference value :  2.47520e-05
 Reference value :  2.47540e-05
 Reference value :  2.47553e-05
 Reference value :  2.47569e-05
 Reference value :  2.47599e-05
 Reference value :  2.47690e-05
 Reference value :  2.48216e-05
 Reference value :  2.50000e-05
 Reference value :  2.50001e-05
 Reference value :  2.50001e-05
 Reference value :  2.50003e-05
 Reference value :  2.50013e-05
 Reference value :  2.50022e-05
 Reference value :  2.50034e-05
 Reference value :  2.50046e-05
 Reference value :  2.50058e-05
 Reference value :  2.50064e-05
 Reference value :  2.50080e-05
 Reference value :  2.50100e-05
 Reference value :  2.50117e-05
 Reference value :  2.50156e-05
 Reference value :  2.50225e-05
 Reference value :  2.50293e-05
 Reference value :  2.50394e-05
 Reference value :  2.50743e-05
 Reference value :  2.52501e-05
 Reference value :  2.52502e-05
 Reference value :  2.52503e-05
 Reference value :  2.52507e-05
 Reference value :  2.52515e-05
 Reference value :  2.52526e-05
 Reference value :  2.52543e-05
 Reference value :  2.52573e-05
 Reference value :  2.52603e-05
 Reference value :  2.52808e-05
 Reference value :  2.54366e-05
 Reference value :  2.55000e-05
 Reference value :  2.55000e-05
 Reference value :  2.55000e-05
 Reference value :  2.55001e-05
 Reference value :  2.55001e-05
 Reference value :  2.55003e-05
 Reference value :  2.55013e-05
 Reference value :  2.55024e-05
 Reference value :  2.55037e-05
 Reference value :  2.55051e-05
 Reference value :  2.55063e-05
 Reference value :  2.55079e-05
 Reference value :  2.55221e-05
 Reference value :  2.55288e-05
 Reference value :  2.55337e-05
 Reference value :  2.55374e-05
 Reference value :  2.55406e-05
 Reference value :  2.55457e-05
 Reference value :  2.55505e-05
 Reference value :  2.55612e-05
 Reference value :  2.55868e-05
 Reference value :  2.56632e-05
 Reference value :  2.57501e-05
 Reference value :  2.57502e-05
 Reference value :  2.57503e-05
 Reference value :  2.57507e-05
 Reference value :  2.57515e-05
 Reference value :  2.57525e-05
 Reference value :  2.57540e-05
 Reference value :  2.57546e-05
 Reference value :  2.57560e-05
 Reference value :  2.57577e-05
 Reference value :  2.57616e-05
 Reference value :  2.57809e-05
 Reference value :  2.58855e-05
 Reference value :  2.60000e-05
 Reference value :  2.60001e-05
 Reference value :  2.60002e-05
 Reference value :  2.60003e-05
 Reference value :  2.60009e-05
 Reference value :  2.60013e-05
 Reference value :  2.60022e-05
 Reference value :  2.60034e-05
 Reference value :  2.60046e-05
 Reference value :  2.60088e-05
 Reference value :  2.60131e-05
 Reference value :  2.60164e-05
 Reference value :  2.60228e-05
 Reference value :  2.60624e-05
 Reference value :  2.62501e-05
 Reference value :  2.62502e-05
 Reference value :  2.62503e-05
 Reference value :  2.62507e-05
 Reference value :  2.62515e-05
 Reference value :  2.62525e-05
 Reference value :  2.62540e-05
 Reference value :  2.62553e-05
 Reference value :  2.62570e-05
 Reference value :  2.62619e-05
 Reference value :  2.62996e-05
 Reference value :  2.65001e-05
 Reference value :  2.65001e-05
 Reference value :  2.65004e-05
 Reference value :  2.65016e-05
 Reference value :  2.65031e-05
 Reference value :  2.65050e-05
 Reference value :  2.65063e-05
 Reference value :  2.65086e-05
 Reference value :  2.65136e-05
 Reference value :  2.65166e-05
 Reference value :  2.65193e-05
 Reference value :  2.65264e-05
 Reference value :  2.65535e-05
 Reference value :  2.65768e-05
 Reference value :  2.65939e-05
 Reference value :  2.66321e-05
 Reference value :  2.67501e-05
 Reference value :  2.67502e-05
 Reference value :  2.67510e-05
 Reference value :  2.67525e-05
 Reference value :  2.67546e-05
 Reference value :  2.67569e-05
 Reference value :  2.67707e-05
 Reference value :  2.70000e-05
 Reference value :  2.70001e-05
 Reference value :  2.70009e-05
 Reference value :  2.70022e-05
 Reference value :  2.70049e-05
 Reference value :  2.70075e-05
 Reference value :  2.70116e-05
 Reference value :  2.70283e-05
 Reference value :  2.72501e-05
 Reference value :  2.72502e-05
 Reference value :  2.72507e-05
 Reference value :  2.72520e-05
 Reference value :  2.72540e-05
 Reference value :  2.72546e-05
 Reference value :  2.72560e-05
 Reference value :  2.72578e-05
 Reference value :  2.72599e-05
 Reference value :  2.72654e-05
 Reference value :  2.72837e-05
 Reference value :  2.73574e-05
 Reference value :  2.75000e-05
 Reference value :  2.75001e-05
 Reference value :  2.75001e-05
 Reference value :  2.75003e-05
 Reference value :  2.75013e-05
 Reference value :  2.75022e-05
 Reference value :  2.75040e-05
 Reference value :  2.75046e-05
 Reference value :  2.75058e-05
 Reference value :  2.75064e-05
 Reference value :  2.75090e-05
 Reference value :  2.75115e-05
 Reference value :  2.75138e-05
 Reference value :  2.75161e-05
 Reference value :  2.75183e-05
 Reference value :  2.75208e-05
 Reference value :  2.75264e-05
 Reference value :  2.75699e-05
 Reference value :  2.76476e-05
 Reference value :  2.77166e-05
 Reference value :  2.77421e-05
 Reference value :  2.77501e-05
 Reference value :  2.77502e-05
 Reference value :  2.77502e-05
 Reference value :  2.77503e-05
 Reference value :  2.77507e-05
 Reference value :  2.77515e-05
 Reference value :  2.77525e-05
 Reference value :  2.77540e-05
 Reference value :  2.77546e-05
 Reference value :  2.77559e-05
 Reference value :  2.77568e-05
 Reference value :  2.77594e-05
 Reference value :  2.77649e-05
 Reference value :  2.77959e-05
 Reference value :  2.78213e-05
 Reference value :  2.78782e-05
 Reference value :  2.80014e-05
 Reference value :  2.80041e-05
 Reference value :  2.80055e-05
 Reference value :  2.80082e-05
 Reference value :  2.80107e-05
 Reference value :  2.80134e-05
 Reference value :  2.80231e-05
 Reference value :  2.80834e-05
 Reference value :  2.82501e-05
 Reference value :  2.82502e-05
 Reference value :  2.82503e-05
 Reference value :  2.82511e-05
 Reference value :  2.82520e-05
 Reference value :  2.82540e-05
 Reference value :  2.82561e-05
 Reference value :  2.82588e-05
 Reference value :  2.82690e-05
 Reference value :  2.85000e-05
 Reference value :  2.85001e-05
 Reference value :  2.85009e-05
 Reference value :  2.85022e-05
 Reference value :  2.85046e-05
 Reference value :  2.85058e-05
 Reference value :  2.85080e-05
 Reference value :  2.85115e-05
 Reference value :  2.85138e-05
 Reference value :  2.85173e-05
 Reference value :  2.85211e-05
 Reference value :  2.85399e-05
 Reference value :  2.85581e-05
 Reference value :  2.85759e-05
 Reference value :  2.86611e-05
 Reference value :  2.87502e-05
 Reference value :  2.87503e-05
 Reference value :  2.87515e-05
 Reference value :  2.87533e-05
 Reference value :  2.87547e-05
 Reference value :  2.87569e-05
 Reference value :  2.87618e-05
 Reference value :  2.87987e-05
 Reference value :  2.89829e-05
 Reference value :  2.90003e-05
 Reference value :  2.90012e-05
 Reference value :  2.90024e-05
 Reference value :  2.90042e-05
 Reference value :  2.90068e-05
 Reference value :  2.90076e-05
 Reference value :  2.90094e-05
 Reference value :  2.90128e-05
 Reference value :  2.90206e-05
 Reference value :  2.90678e-05
 Reference value :  2.92501e-05
 Reference value :  2.92502e-05
 Reference value :  2.92502e-05
 Reference value :  2.92504e-05
 Reference value :  2.92510e-05
 Reference value :  2.92520e-05
 Reference value :  2.92532e-05
 Reference value :  2.92546e-05
 Reference value :  2.92560e-05
 Reference value :  2.92578e-05
 Reference value :  2.92649e-05
 Reference value :  2.93321e-05
 Reference value :  2.95000e-05
 Reference value :  2.95001e-05
 Reference value :  2.95002e-05
 Reference value :  2.95013e-05
 Reference value :  2.95028e-05
 Reference value :  2.95046e-05
 Reference value :  2.95058e-05
 Reference value :  2.95071e-05
 Reference value :  2.95106e-05
 Reference value :  2.95140e-05
 Reference value :  2.95167e-05
 Reference value :  2.95191e-05
 Reference value :  2.95234e-05
 Reference value :  2.95334e-05
 Reference value :  2.95456e-05
 Reference value :  2.95583e-05
 Reference value :  2.95815e-05
 Reference value :  2.96504e-05
 Reference value :  2.97502e-05
 Reference value :  2.97503e-05
 Reference value :  2.97507e-05
 Reference value :  2.97520e-05
 Reference value :  2.97540e-05
 Reference value :  2.97554e-05
 Reference value :  2.97581e-05
 Reference value :  2.97659e-05
 Reference value :  2.98021e-05
 Reference value :  3.00000e-05
 Reference value :  3.00001e-05
 Reference value :  3.00001e-05
 Reference value :  3.00003e-05
 Reference value :  3.00013e-05
 Reference value :  3.00022e-05
 Reference value :  3.00041e-05
 Reference value :  3.00056e-05
 Reference value :  3.00067e-05
 Reference value :  3.00075e-05
 Reference value :  3.00095e-05
 Reference value :  3.00128e-05
 Reference value :  3.00283e-05
 Reference value :  3.02120e-05
 Reference value :  3.02501e-05
 Reference value :  3.02502e-05
 Reference value :  3.02503e-05
 Reference value :  3.02507e-05
 Reference value :  3.02520e-05
 Reference value :  3.02540e-05
 Reference value :  3.02560e-05
 Reference value :  3.02588e-05
 Reference value :  3.02655e-05
 Reference value :  3.02987e-05
 Reference value :  3.05013e-05
 Reference value :  3.05053e-05
 Reference value :  3.05076e-05
 Reference value :  3.05113e-05
 Reference value :  3.05139e-05
 Reference value :  3.05160e-05
 Reference value :  3.05180e-05
 Reference value :  3.05201e-05
 Reference value :  3.05271e-05
 Reference value :  3.05309e-05
 Reference value :  3.05369e-05
 Reference value :  3.05505e-05
 Reference value :  3.05773e-05
 Reference value :  3.07501e-05
 Reference value :  3.07502e-05
 Reference value :  3.07503e-05
 Reference value :  3.07507e-05
 Reference value :  3.07520e-05
 Reference value :  3.07532e-05
 Reference value :  3.07547e-05
 Reference value :  3.07568e-05
 Reference value :  3.07650e-05
 Reference value :  3.08304e-05
 Reference value :  3.10000e-05
 Reference value :  3.10001e-05
 Reference value :  3.10002e-05
 Reference value :  3.10009e-05
 Reference value :  3.10018e-05
 Reference value :  3.10028e-05
 Reference value :  3.10046e-05
 Reference value :  3.10074e-05
 Reference value :  3.10106e-05
 Reference value :  3.10129e-05
 Reference value :  3.10283e-05
 Reference value :  3.11048e-05
 Reference value :  3.12501e-05
 Reference value :  3.12502e-05
 Reference value :  3.12503e-05
 Reference value :  3.12507e-05
 Reference value :  3.12515e-05
 Reference value :  3.12525e-05
 Reference value :  3.12540e-05
 Reference value :  3.12546e-05
 Reference value :  3.12560e-05
 Reference value :  3.12579e-05
 Reference value :  3.12654e-05
 Reference value :  3.12996e-05
 Reference value :  3.13872e-05
 Reference value :  3.15000e-05
 Reference value :  3.15001e-05
 Reference value :  3.15001e-05
 Reference value :  3.15003e-05
 Reference value :  3.15009e-05
 Reference value :  3.15013e-05
 Reference value :  3.15022e-05
 Reference value :  3.15034e-05
 Reference value :  3.15046e-05
 Reference value :  3.15058e-05
 Reference value :  3.15064e-05
 Reference value :  3.15080e-05
 Reference value :  3.15126e-05
 Reference value :  3.15140e-05
 Reference value :  3.15154e-05
 Reference value :  3.15179e-05
 Reference value :  3.15203e-05
 Reference value :  3.15253e-05
 Reference value :  3.15339e-05
 Reference value :  3.15599e-05
 Reference value :  3.15811e-05
 Reference value :  3.16352e-05
 Reference value :  3.17029e-05
 Reference value :  3.17501e-05
 Reference value :  3.17502e-05
 Reference value :  3.17503e-05
 Reference value :  3.17511e-05
 Reference value :  3.17520e-05
 Reference value :  3.17540e-05
 Reference value :  3.17553e-05
 Reference value :  3.17569e-05
 Reference value :  3.17617e-05
 Reference value :  3.17986e-05
 Reference value :  3.20000e-05
 Reference value :  3.20001e-05
 Reference value :  3.20001e-05
 Reference value :  3.20003e-05
 Reference value :  3.20013e-05
 Reference value :  3.20022e-05
 Reference value :  3.20034e-05
 Reference value :  3.20046e-05
 Reference value :  3.20063e-05
 Reference value :  3.20083e-05
 Reference value :  3.20102e-05
 Reference value :  3.20124e-05
 Reference value :  3.20309e-05
 Reference value :  3.22501e-05
 Reference value :  3.22502e-05
 Reference value :  3.22503e-05
 Reference value :  3.22507e-05
 Reference value :  3.22520e-05
 Reference value :  3.22541e-05
 Reference value :  3.22554e-05
 Reference value :  3.22579e-05
 Reference value :  3.22655e-05
 Reference value :  3.23310e-05
 Reference value :  3.25000e-05
 Reference value :  3.25001e-05
 Reference value :  3.25002e-05
 Reference value :  3.25009e-05
 Reference value :  3.25018e-05
 Reference value :  3.25028e-05
 Reference value :  3.25046e-05
 Reference value :  3.25058e-05
 Reference value :  3.25071e-05
 Reference value :  3.25106e-05
 Reference value :  3.25140e-05
 Reference value :  3.25154e-05
 Reference value :  3.25180e-05
 Reference value :  3.25191e-05
 Reference value :  3.25234e-05
 Reference value :  3.25331e-05
 Reference value :  3.25664e-05
 Reference value :  3.26018e-05
 Reference value :  3.26498e-05
 Reference value :  3.27498e-05
 Reference value :  3.27501e-05
 Reference value :  3.27502e-05
 Reference value :  3.27503e-05
 Reference value :  3.27507e-05
 Reference value :  3.27515e-05
 Reference value :  3.27520e-05
 Reference value :  3.27533e-05
 Reference value :  3.27547e-05
 Reference value :  3.27560e-05
 Reference value :  3.27599e-05
 Reference value :  3.27833e-05
 Reference value :  3.30000e-05
 Reference value :  3.30001e-05
 Reference value :  3.30002e-05
 Reference value :  3.30005e-05
 Reference value :  3.30013e-05
 Reference value :  3.30022e-05
 Reference value :  3.30041e-05
 Reference value :  3.30067e-05
 Reference value :  3.30075e-05
 Reference value :  3.30095e-05
 Reference value :  3.30128e-05
 Reference value :  3.30420e-05
 Reference value :  3.32501e-05
 Reference value :  3.32502e-05
 Reference value :  3.32503e-05
 Reference value :  3.32507e-05
 Reference value :  3.32520e-05
 Reference value :  3.32540e-05
 Reference value :  3.32553e-05
 Reference value :  3.32569e-05
 Reference value :  3.32599e-05
 Reference value :  3.32655e-05
 Reference value :  3.32987e-05
 Reference value :  3.35000e-05
 Reference value :  3.35013e-05
 Reference value :  3.35053e-05
 Reference value :  3.35076e-05
 Reference value :  3.35097e-05
 Reference value :  3.35119e-05
 Reference value :  3.35160e-05
 Reference value :  3.35199e-05
 Reference value :  3.35234e-05
 Reference value :  3.35277e-05
 Reference value :  3.35471e-05
 Reference value :  3.36395e-05
 Reference value :  3.37501e-05
 Reference value :  3.37501e-05
 Reference value :  3.37502e-05
 Reference value :  3.37502e-05
 Reference value :  3.37503e-05
 Reference value :  3.37507e-05
 Reference value :  3.37515e-05
 Reference value :  3.37520e-05
 Reference value :  3.37533e-05
 Reference value :  3.37549e-05
 Reference value :  3.37570e-05
 Reference value :  3.37601e-05
 Reference value :  3.37711e-05
 Reference value :  3.38112e-05
 Reference value :  3.39053e-05
 Reference value :  3.40000e-05
 Reference value :  3.40000e-05
 Reference value :  3.40000e-05
 Reference value :  3.40000e-05
 Reference value :  3.40001e-05
 Reference value :  3.40001e-05
 Reference value :  3.40003e-05
 Reference value :  3.40013e-05
 Reference value :  3.40025e-05
 Reference value :  3.40037e-05
 Reference value :  3.40057e-05
 Reference value :  3.40113e-05
 Reference value :  3.40288e-05
 Reference value :  3.40374e-05
 Reference value :  3.40457e-05
 Reference value :  3.40611e-05
 Reference value :  3.42037e-05
 Reference value :  3.42502e-05
 Reference value :  3.42504e-05
 Reference value :  3.42520e-05
 Reference value :  3.42546e-05
 Reference value :  3.42577e-05
 Reference value :  3.42806e-05
 Reference value :  3.45000e-05
 Reference value :  3.45002e-05
 Reference value :  3.45018e-05
 Reference value :  3.45040e-05
 Reference value :  3.45074e-05
 Reference value :  3.45102e-05
 Reference value :  3.45164e-05
 Reference value :  3.45330e-05
 Reference value :  3.47501e-05
 Reference value :  3.47502e-05
 Reference value :  3.47503e-05
 Reference value :  3.47511e-05
 Reference value :  3.47520e-05
 Reference value :  3.47540e-05
 Reference value :  3.47560e-05
 Reference value :  3.47619e-05
 Reference value :  3.48315e-05
 Reference value :  3.50000e-05
 Reference value :  3.50001e-05
 Reference value :  3.50005e-05
 Reference value :  3.50018e-05
 Reference value :  3.50034e-05
 Reference value :  3.50046e-05
 Reference value :  3.50058e-05
 Reference value :  3.50080e-05
 Reference value :  3.50126e-05
 Reference value :  3.50154e-05
 Reference value :  3.50191e-05
 Reference value :  3.50235e-05
 Reference value :  3.50429e-05
 Reference value :  3.50618e-05
 Reference value :  3.50740e-05
 Reference value :  3.50901e-05
 Reference value :  3.51402e-05
 Reference value :  3.52501e-05
 Reference value :  3.52502e-05
 Reference value :  3.52504e-05
 Reference value :  3.52515e-05
 Reference value :  3.52525e-05
 Reference value :  3.52540e-05
 Reference value :  3.52553e-05
 Reference value :  3.52569e-05
 Reference value :  3.52618e-05
 Reference value :  3.53309e-05
 Reference value :  3.55000e-05
 Reference value :  3.55001e-05
 Reference value :  3.55002e-05
 Reference value :  3.55009e-05
 Reference value :  3.55018e-05
 Reference value :  3.55027e-05
 Reference value :  3.55041e-05
 Reference value :  3.55056e-05
 Reference value :  3.55075e-05
 Reference value :  3.55095e-05
 Reference value :  3.55128e-05
 Reference value :  3.55283e-05
 Reference value :  3.57120e-05
 Reference value :  3.57501e-05
 Reference value :  3.57502e-05
 Reference value :  3.57504e-05
 Reference value :  3.57511e-05
 Reference value :  3.57520e-05
 Reference value :  3.57540e-05
 Reference value :  3.57553e-05
 Reference value :  3.57569e-05
 Reference value :  3.57588e-05
 Reference value :  3.57632e-05
 Reference value :  3.57752e-05
 Reference value :  3.58582e-05
 Reference value :  3.60015e-05
 Reference value :  3.60061e-05
 Reference value :  3.60089e-05
 Reference value :  3.60125e-05
 Reference value :  3.60147e-05
 Reference value :  3.60164e-05
 Reference value :  3.60184e-05
 Reference value :  3.60217e-05
 Reference value :  3.60337e-05
 Reference value :  3.61148e-05
 Reference value :  3.61967e-05
 Reference value :  3.62462e-05
 Reference value :  3.62501e-05
 Reference value :  3.62502e-05
 Reference value :  3.62504e-05
 Reference value :  3.62515e-05
 Reference value :  3.62526e-05
 Reference value :  3.62540e-05
 Reference value :  3.62553e-05
 Reference value :  3.62568e-05
 Reference value :  3.62616e-05
 Reference value :  3.62809e-05
 Reference value :  3.63151e-05
 Reference value :  3.63573e-05
 Reference value :  3.65000e-05
 Reference value :  3.65001e-05
 Reference value :  3.65001e-05
 Reference value :  3.65003e-05
 Reference value :  3.65013e-05
 Reference value :  3.65022e-05
 Reference value :  3.65041e-05
 Reference value :  3.65067e-05
 Reference value :  3.65075e-05
 Reference value :  3.65095e-05
 Reference value :  3.65128e-05
 Reference value :  3.65283e-05
 Reference value :  3.66152e-05
 Reference value :  3.67501e-05
 Reference value :  3.67502e-05
 Reference value :  3.67504e-05
 Reference value :  3.67515e-05
 Reference value :  3.67525e-05
 Reference value :  3.67540e-05
 Reference value :  3.67553e-05
 Reference value :  3.67570e-05
 Reference value :  3.67589e-05
 Reference value :  3.67613e-05
 Reference value :  3.67691e-05
 Reference value :  3.67988e-05
 Reference value :  3.69173e-05
 Reference value :  3.70000e-05
 Reference value :  3.70001e-05
 Reference value :  3.70002e-05
 Reference value :  3.70009e-05
 Reference value :  3.70018e-05
 Reference value :  3.70022e-05
 Reference value :  3.70034e-05
 Reference value :  3.70046e-05
 Reference value :  3.70058e-05
 Reference value :  3.70064e-05
 Reference value :  3.70080e-05
 Reference value :  3.70105e-05
 Reference value :  3.70115e-05
 Reference value :  3.70138e-05
 Reference value :  3.70162e-05
 Reference value :  3.70185e-05
 Reference value :  3.70211e-05
 Reference value :  3.70247e-05
 Reference value :  3.70399e-05
 Reference value :  3.70475e-05
 Reference value :  3.70561e-05
 Reference value :  3.70623e-05
 Reference value :  3.70687e-05
 Reference value :  3.70818e-05
 Reference value :  3.71070e-05
 Reference value :  3.71699e-05
 Reference value :  3.72501e-05
 Reference value :  3.72502e-05
 Reference value :  3.72503e-05
 Reference value :  3.72507e-05
 Reference value :  3.72515e-05
 Reference value :  3.72525e-05
 Reference value :  3.72540e-05
 Reference value :  3.72546e-05
 Reference value :  3.72568e-05
 Reference value :  3.72617e-05
 Reference value :  3.72983e-05
 Reference value :  3.74985e-05
 Reference value :  3.75000e-05
 Reference value :  3.75001e-05
 Reference value :  3.75003e-05
 Reference value :  3.75013e-05
 Reference value :  3.75022e-05
 Reference value :  3.75034e-05
 Reference value :  3.75046e-05
 Reference value :  3.75063e-05
 Reference value :  3.75083e-05
 Reference value :  3.75102e-05
 Reference value :  3.75136e-05
 Reference value :  3.75503e-05
 Reference value :  3.77501e-05
 Reference value :  3.77502e-05
 Reference value :  3.77503e-05
 Reference value :  3.77507e-05
 Reference value :  3.77520e-05
 Reference value :  3.77533e-05
 Reference value :  3.77547e-05
 Reference value :  3.77561e-05
 Reference value :  3.77579e-05
 Reference value :  3.77715e-05
 Reference value :  3.78847e-05
 Reference value :  3.80000e-05
 Reference value :  3.80001e-05
 Reference value :  3.80002e-05
 Reference value :  3.80013e-05
 Reference value :  3.80022e-05
 Reference value :  3.80040e-05
 Reference value :  3.80052e-05
 Reference value :  3.80064e-05
 Reference value :  3.80106e-05
 Reference value :  3.80140e-05
 Reference value :  3.80167e-05
 Reference value :  3.80191e-05
 Reference value :  3.80253e-05
 Reference value :  3.80378e-05
 Reference value :  3.80452e-05
 Reference value :  3.80576e-05
 Reference value :  3.80743e-05
 Reference value :  3.81116e-05
 Reference value :  3.82501e-05
 Reference value :  3.82502e-05
 Reference value :  3.82503e-05
 Reference value :  3.82515e-05
 Reference value :  3.82526e-05
 Reference value :  3.82547e-05
 Reference value :  3.82571e-05
 Reference value :  3.82623e-05
 Reference value :  3.82832e-05
 Reference value :  3.84820e-05
 Reference value :  3.85003e-05
 Reference value :  3.85013e-05
 Reference value :  3.85020e-05
 Reference value :  3.85030e-05
 Reference value :  3.85045e-05
 Reference value :  3.85062e-05
 Reference value :  3.85082e-05
 Reference value :  3.85101e-05
 Reference value :  3.85122e-05
 Reference value :  3.85286e-05
 Reference value :  3.85731e-05
 Reference value :  3.87475e-05
 Reference value :  3.87501e-05
 Reference value :  3.87502e-05
 Reference value :  3.87502e-05
 Reference value :  3.87503e-05
 Reference value :  3.87507e-05
 Reference value :  3.87515e-05
 Reference value :  3.87526e-05
 Reference value :  3.87541e-05
 Reference value :  3.87547e-05
 Reference value :  3.87561e-05
 Reference value :  3.87570e-05
 Reference value :  3.87588e-05
 Reference value :  3.87612e-05
 Reference value :  3.87748e-05
 Reference value :  3.88190e-05
 Reference value :  3.90000e-05
 Reference value :  3.90001e-05
 Reference value :  3.90001e-05
 Reference value :  3.90002e-05
 Reference value :  3.90009e-05
 Reference value :  3.90013e-05
 Reference value :  3.90022e-05
 Reference value :  3.90034e-05
 Reference value :  3.90046e-05
 Reference value :  3.90058e-05
 Reference value :  3.90071e-05
 Reference value :  3.90090e-05
 Reference value :  3.90115e-05
 Reference value :  3.90138e-05
 Reference value :  3.90162e-05
 Reference value :  3.90185e-05
 Reference value :  3.90212e-05
 Reference value :  3.90244e-05
 Reference value :  3.90278e-05
 Reference value :  3.90311e-05
 Reference value :  3.90410e-05
 Reference value :  3.90577e-05
 Reference value :  3.91639e-05
 Reference value :  3.92501e-05
 Reference value :  3.92502e-05
 Reference value :  3.92503e-05
 Reference value :  3.92511e-05
 Reference value :  3.92520e-05
 Reference value :  3.92533e-05
 Reference value :  3.92546e-05
 Reference value :  3.92560e-05
 Reference value :  3.92569e-05
 Reference value :  3.92595e-05
 Reference value :  3.92705e-05
 Reference value :  3.93864e-05
 Reference value :  3.95000e-05
 Reference value :  3.95001e-05
 Reference value :  3.95002e-05
 Reference value :  3.95005e-05
 Reference value :  3.95013e-05
 Reference value :  3.95022e-05
 Reference value :  3.95034e-05
 Reference value :  3.95046e-05
 Reference value :  3.95063e-05
 Reference value :  3.95083e-05
 Reference value :  3.95102e-05
 Reference value :  3.95124e-05
 Reference value :  3.95309e-05
 Reference value :  3.97501e-05
 Reference value :  3.97502e-05
 Reference value :  3.97502e-05
 Reference value :  3.97504e-05
 Reference value :  3.97511e-05
 Reference value :  3.97520e-05
 Reference value :  3.97533e-05
 Reference value :  3.97541e-05
 Reference value :  3.97547e-05
 Reference value :  3.97561e-05
 Reference value :  3.97579e-05
 Reference value :  3.97620e-05
 Reference value :  3.97821e-05
 Reference value :  3.98847e-05
 Reference value :  4.00000e-05
 Reference value :  4.00001e-05
 Reference value :  4.00002e-05
 Reference value :  4.00005e-05
 Reference value :  4.00013e-05
 Reference value :  4.00022e-05
 Reference value :  4.00034e-05
 Reference value :  4.00046e-05
 Reference value :  4.00058e-05
 Reference value :  4.00071e-05
 Reference value :  4.00126e-05
 Reference value :  4.00154e-05
 Reference value :  4.00179e-05
 Reference value :  4.00203e-05
 Reference value :  4.00253e-05
 Reference value :  4.00424e-05
 Reference value :  4.00704e-05
 Reference value :  4.01118e-05
 Reference value :  4.02501e-05
 Reference value :  4.02502e-05
 Reference value :  4.02502e-05
 Reference value :  4.02504e-05
 Reference value :  4.02515e-05
 Reference value :  4.02533e-05
 Reference value :  4.02547e-05
 Reference value :  4.02569e-05
 Reference value :  4.02652e-05
 Reference value :  4.03849e-05
 Reference value :  4.05000e-05
 Reference value :  4.05002e-05
 Reference value :  4.05013e-05
 Reference value :  4.05022e-05
 Reference value :  4.05040e-05
 Reference value :  4.05053e-05
 Reference value :  4.05073e-05
 Reference value :  4.05093e-05
 Reference value :  4.05124e-05
 Reference value :  4.05504e-05
 Reference value :  4.07501e-05
 Reference value :  4.07502e-05
 Reference value :  4.07503e-05
 Reference value :  4.07507e-05
 Reference value :  4.07515e-05
 Reference value :  4.07526e-05
 Reference value :  4.07541e-05
 Reference value :  4.07547e-05
 Reference value :  4.07561e-05
 Reference value :  4.07597e-05
 Reference value :  4.07715e-05
 Reference value :  4.09779e-05
 Reference value :  4.10004e-05
 Reference value :  4.10016e-05
 Reference value :  4.10024e-05
 Reference value :  4.10041e-05
 Reference value :  4.10059e-05
 Reference value :  4.10091e-05
 Reference value :  4.10142e-05
 Reference value :  4.10178e-05
 Reference value :  4.10231e-05
 Reference value :  4.10500e-05
 Reference value :  4.12307e-05
 Reference value :  4.12502e-05
 Reference value :  4.12507e-05
 Reference value :  4.12520e-05
 Reference value :  4.12547e-05
 Reference value :  4.12578e-05
 Reference value :  4.12987e-05
 Reference value :  4.15000e-05
 Reference value :  4.15002e-05
 Reference value :  4.15013e-05
 Reference value :  4.15028e-05
 Reference value :  4.15046e-05
 Reference value :  4.15073e-05
 Reference value :  4.15102e-05
 Reference value :  4.15136e-05
 Reference value :  4.16670e-05
 Reference value :  4.17502e-05
 Reference value :  4.17504e-05
 Reference value :  4.17520e-05
 Reference value :  4.17541e-05
 Reference value :  4.17561e-05
 Reference value :  4.17596e-05
 Reference value :  4.18301e-05
 Reference value :  4.20000e-05
 Reference value :  4.20002e-05
 Reference value :  4.20013e-05
 Reference value :  4.20034e-05
 Reference value :  4.20052e-05
 Reference value :  4.20071e-05
 Reference value :  4.20111e-05
 Reference value :  4.20506e-05
 Reference value :  4.22501e-05
 Reference value :  4.22503e-05
 Reference value :  4.22511e-05
 Reference value :  4.22525e-05
 Reference value :  4.22561e-05
 Reference value :  4.22662e-05
 Reference value :  4.24330e-05
 Reference value :  4.25000e-05
 Reference value :  4.25000e-05
 Reference value :  4.25001e-05
 Reference value :  4.25008e-05
 Reference value :  4.25024e-05
 Reference value :  4.25044e-05
 Reference value :  4.25057e-05
 Reference value :  4.25079e-05
 Reference value :  4.25288e-05
 Reference value :  4.25337e-05
 Reference value :  4.25407e-05
 Reference value :  4.25455e-05
 Reference value :  4.25526e-05
 Reference value :  4.25712e-05
 Reference value :  4.26298e-05
 Reference value :  4.27501e-05
 Reference value :  4.27502e-05
 Reference value :  4.27503e-05
 Reference value :  4.27511e-05
 Reference value :  4.27520e-05
 Reference value :  4.27533e-05
 Reference value :  4.27541e-05
 Reference value :  4.27547e-05
 Reference value :  4.27560e-05
 Reference value :  4.27578e-05
 Reference value :  4.27651e-05
 Reference value :  4.27981e-05
 Reference value :  4.29852e-05
 Reference value :  4.30000e-05
 Reference value :  4.30001e-05
 Reference value :  4.30002e-05
 Reference value :  4.30003e-05
 Reference value :  4.30013e-05
 Reference value :  4.30022e-05
 Reference value :  4.30034e-05
 Reference value :  4.30046e-05
 Reference value :  4.30074e-05
 Reference value :  4.30088e-05
 Reference value :  4.30117e-05
 Reference value :  4.30150e-05
 Reference value :  4.30164e-05
 Reference value :  4.30228e-05
 Reference value :  4.30628e-05
 Reference value :  4.32501e-05
 Reference value :  4.32502e-05
 Reference value :  4.32503e-05
 Reference value :  4.32511e-05
 Reference value :  4.32520e-05
 Reference value :  4.32540e-05
 Reference value :  4.32553e-05
 Reference value :  4.32579e-05
 Reference value :  4.32713e-05
 Reference value :  4.33867e-05
 Reference value :  4.35001e-05
 Reference value :  4.35001e-05
 Reference value :  4.35003e-05
 Reference value :  4.35011e-05
 Reference value :  4.35020e-05
 Reference value :  4.35037e-05
 Reference value :  4.35050e-05
 Reference value :  4.35062e-05
 Reference value :  4.35085e-05
 Reference value :  4.35121e-05
 Reference value :  4.35136e-05
 Reference value :  4.35165e-05
 Reference value :  4.35190e-05
 Reference value :  4.35254e-05
 Reference value :  4.35500e-05
 Reference value :  4.35651e-05
 Reference value :  4.35752e-05
 Reference value :  4.35996e-05
 Reference value :  4.37391e-05
 Reference value :  4.37502e-05
 Reference value :  4.37502e-05
 Reference value :  4.37507e-05
 Reference value :  4.37515e-05
 Reference value :  4.37525e-05
 Reference value :  4.37546e-05
 Reference value :  4.37559e-05
 Reference value :  4.37578e-05
 Reference value :  4.37651e-05
 Reference value :  4.38311e-05
 Reference value :  4.40000e-05
 Reference value :  4.40001e-05
 Reference value :  4.40002e-05
 Reference value :  4.40009e-05
 Reference value :  4.40018e-05
 Reference value :  4.40027e-05
 Reference value :  4.40041e-05
 Reference value :  4.40056e-05
 Reference value :  4.40075e-05
 Reference value :  4.40095e-05
 Reference value :  4.40128e-05
 Reference value :  4.40283e-05
 Reference value :  4.42111e-05
 Reference value :  4.42501e-05
 Reference value :  4.42502e-05
 Reference value :  4.42504e-05
 Reference value :  4.42511e-05
 Reference value :  4.42520e-05
 Reference value :  4.42540e-05
 Reference value :  4.42553e-05
 Reference value :  4.42569e-05
 Reference value :  4.42599e-05
 Reference value :  4.42690e-05
 Reference value :  4.43212e-05
 Reference value :  4.45000e-05
 Reference value :  4.45001e-05
 Reference value :  4.45002e-05
 Reference value :  4.45009e-05
 Reference value :  4.45018e-05
 Reference value :  4.45022e-05
 Reference value :  4.45034e-05
 Reference value :  4.45046e-05
 Reference value :  4.45058e-05
 Reference value :  4.45071e-05
 Reference value :  4.45105e-05
 Reference value :  4.45115e-05
 Reference value :  4.45138e-05
 Reference value :  4.45161e-05
 Reference value :  4.45183e-05
 Reference value :  4.45221e-05
 Reference value :  4.45378e-05
 Reference value :  4.46426e-05
 Reference value :  4.47054e-05
 Reference value :  4.47459e-05
 Reference value :  4.47501e-05
 Reference value :  4.47502e-05
 Reference value :  4.47504e-05
 Reference value :  4.47515e-05
 Reference value :  4.47533e-05
 Reference value :  4.47546e-05
 Reference value :  4.47569e-05
 Reference value :  4.47617e-05
 Reference value :  4.47851e-05
 Reference value :  4.48365e-05
 Reference value :  4.50000e-05
 Reference value :  4.50001e-05
 Reference value :  4.50003e-05
 Reference value :  4.50013e-05
 Reference value :  4.50022e-05
 Reference value :  4.50049e-05
 Reference value :  4.50075e-05
 Reference value :  4.50116e-05
 Reference value :  4.50419e-05
 Reference value :  4.52501e-05
 Reference value :  4.52502e-05
 Reference value :  4.52507e-05
 Reference value :  4.52520e-05
 Reference value :  4.52540e-05
 Reference value :  4.52560e-05
 Reference value :  4.52599e-05
 Reference value :  4.52751e-05
 Reference value :  4.55000e-05
 Reference value :  4.55001e-05
 Reference value :  4.55005e-05
 Reference value :  4.55018e-05
 Reference value :  4.55034e-05
 Reference value :  4.55046e-05
 Reference value :  4.55058e-05
 Reference value :  4.55080e-05
 Reference value :  4.55115e-05
 Reference value :  4.55138e-05
 Reference value :  4.55162e-05
 Reference value :  4.55197e-05
 Reference value :  4.55247e-05
 Reference value :  4.55474e-05
 Reference value :  4.55602e-05
 Reference value :  4.55656e-05
 Reference value :  4.55825e-05
 Reference value :  4.56738e-05
 Reference value :  4.57501e-05
 Reference value :  4.57502e-05
 Reference value :  4.57507e-05
 Reference value :  4.57520e-05
 Reference value :  4.57540e-05
 Reference value :  4.57553e-05
 Reference value :  4.57578e-05
 Reference value :  4.57705e-05
 Reference value :  4.58864e-05
 Reference value :  4.60000e-05
 Reference value :  4.60002e-05
 Reference value :  4.60005e-05
 Reference value :  4.60012e-05
 Reference value :  4.60021e-05
 Reference value :  4.60039e-05
 Reference value :  4.60052e-05
 Reference value :  4.60074e-05
 Reference value :  4.60096e-05
 Reference value :  4.60119e-05
 Reference value :  4.60147e-05
 Reference value :  4.60385e-05
 Reference value :  4.62501e-05
 Reference value :  4.62502e-05
 Reference value :  4.62503e-05
 Reference value :  4.62507e-05
 Reference value :  4.62520e-05
 Reference value :  4.62540e-05
 Reference value :  4.62553e-05
 Reference value :  4.62578e-05
 Reference value :  4.62711e-05
 Reference value :  4.63873e-05
 Reference value :  4.65000e-05
 Reference value :  4.65001e-05
 Reference value :  4.65002e-05
 Reference value :  4.65005e-05
 Reference value :  4.65018e-05
 Reference value :  4.65028e-05
 Reference value :  4.65046e-05
 Reference value :  4.65058e-05
 Reference value :  4.65071e-05
 Reference value :  4.65106e-05
 Reference value :  4.65140e-05
 Reference value :  4.65167e-05
 Reference value :  4.65191e-05
 Reference value :  4.65234e-05
 Reference value :  4.65332e-05
 Reference value :  4.65452e-05
 Reference value :  4.65576e-05
 Reference value :  4.65674e-05
 Reference value :  4.65863e-05
 Reference value :  4.66455e-05
 Reference value :  4.67432e-05
 Reference value :  4.67501e-05
 Reference value :  4.67502e-05
 Reference value :  4.67502e-05
 Reference value :  4.67503e-05
 Reference value :  4.67507e-05
 Reference value :  4.67515e-05
 Reference value :  4.67533e-05
 Reference value :  4.67546e-05
 Reference value :  4.67560e-05
 Reference value :  4.67569e-05
 Reference value :  4.67596e-05
 Reference value :  4.67710e-05
 Reference value :  4.68309e-05
 Reference value :  4.69966e-05
[...]
 Reference value :  1.65751e-04
 Reference value :  1.65752e-04
 Reference value :  1.65754e-04
 Reference value :  1.65755e-04
 Reference value :  1.65757e-04
 Reference value :  1.65765e-04
 Reference value :  1.65983e-04
 Reference value :  1.66000e-04
 Reference value :  1.66000e-04
 Reference value :  1.66001e-04
 Reference value :  1.66002e-04
 Reference value :  1.66005e-04
 Reference value :  1.66007e-04
 Reference value :  1.66009e-04
 Reference value :  1.66012e-04
 Reference value :  1.66031e-04
 Reference value :  1.66250e-04
 Reference value :  1.66250e-04
 Reference value :  1.66250e-04
 Reference value :  1.66250e-04
 Reference value :  1.66252e-04
 Reference value :  1.66253e-04
 Reference value :  1.66254e-04
 Reference value :  1.66255e-04
 Reference value :  1.66258e-04
 Reference value :  1.66272e-04
 Reference value :  1.66385e-04
 Reference value :  1.66500e-04
 Reference value :  1.66500e-04
 Reference value :  1.66500e-04
 Reference value :  1.66501e-04
 Reference value :  1.66502e-04
 Reference value :  1.66503e-04
 Reference value :  1.66504e-04
 Reference value :  1.66505e-04
 Reference value :  1.66506e-04
 Reference value :  1.66506e-04
 Reference value :  1.66508e-04
 Reference value :  1.66511e-04
 Reference value :  1.66514e-04
 Reference value :  1.66517e-04
 Reference value :  1.66519e-04
 Reference value :  1.66522e-04
 Reference value :  1.66525e-04
 Reference value :  1.66539e-04
 Reference value :  1.66553e-04
 Reference value :  1.66564e-04
 Reference value :  1.66578e-04
 Reference value :  1.66627e-04
 Reference value :  1.66750e-04
 Reference value :  1.66750e-04
 Reference value :  1.66751e-04
 Reference value :  1.66752e-04
 Reference value :  1.66754e-04
 Reference value :  1.66755e-04
 Reference value :  1.66758e-04
 Reference value :  1.66781e-04
 Reference value :  1.67000e-04
 Reference value :  1.67000e-04
 Reference value :  1.67000e-04
 Reference value :  1.67001e-04
 Reference value :  1.67003e-04
 Reference value :  1.67004e-04
 Reference value :  1.67007e-04
 Reference value :  1.67008e-04
 Reference value :  1.67011e-04
 Reference value :  1.67014e-04
 Reference value :  1.67066e-04
 Reference value :  1.67250e-04
 Reference value :  1.67250e-04
 Reference value :  1.67251e-04
 Reference value :  1.67252e-04
 Reference value :  1.67254e-04
 Reference value :  1.67256e-04
 Reference value :  1.67258e-04
 Reference value :  1.67261e-04
 Reference value :  1.67284e-04
 Reference value :  1.67500e-04
 Reference value :  1.67500e-04
 Reference value :  1.67500e-04
 Reference value :  1.67501e-04
 Reference value :  1.67501e-04
 Reference value :  1.67502e-04
 Reference value :  1.67504e-04
 Reference value :  1.67505e-04
 Reference value :  1.67506e-04
 Reference value :  1.67509e-04
 Reference value :  1.67511e-04
 Reference value :  1.67514e-04
 Reference value :  1.67516e-04
 Reference value :  1.67519e-04
 Reference value :  1.67521e-04
 Reference value :  1.67527e-04
 Reference value :  1.67532e-04
 Reference value :  1.67536e-04
 Reference value :  1.67562e-04
 Reference value :  1.67726e-04
 Reference value :  1.67750e-04
 Reference value :  1.67750e-04
 Reference value :  1.67750e-04
 Reference value :  1.67751e-04
 Reference value :  1.67752e-04
 Reference value :  1.67753e-04
 Reference value :  1.67755e-04
 Reference value :  1.67756e-04
 Reference value :  1.67758e-04
 Reference value :  1.67771e-04
 Reference value :  1.67830e-04
 Reference value :  1.68000e-04
 Reference value :  1.68000e-04
 Reference value :  1.68000e-04
 Reference value :  1.68001e-04
 Reference value :  1.68002e-04
 Reference value :  1.68003e-04
 Reference value :  1.68005e-04
 Reference value :  1.68006e-04
 Reference value :  1.68008e-04
 Reference value :  1.68011e-04
 Reference value :  1.68016e-04
 Reference value :  1.68089e-04
 Reference value :  1.68250e-04
 Reference value :  1.68250e-04
 Reference value :  1.68251e-04
 Reference value :  1.68252e-04
 Reference value :  1.68254e-04
 Reference value :  1.68255e-04
 Reference value :  1.68258e-04
 Reference value :  1.68266e-04
 Reference value :  1.68331e-04
 Reference value :  1.68500e-04
 Reference value :  1.68500e-04
 Reference value :  1.68500e-04
 Reference value :  1.68501e-04
 Reference value :  1.68502e-04
 Reference value :  1.68503e-04
 Reference value :  1.68505e-04
 Reference value :  1.68506e-04
 Reference value :  1.68513e-04
 Reference value :  1.68515e-04
 Reference value :  1.68519e-04
 Reference value :  1.68533e-04
 Reference value :  1.68599e-04
 Reference value :  1.68657e-04
 Reference value :  1.68750e-04
 Reference value :  1.68750e-04
 Reference value :  1.68752e-04
 Reference value :  1.68754e-04
 Reference value :  1.68756e-04
 Reference value :  1.68766e-04
 Reference value :  1.68982e-04
 Reference value :  1.69000e-04
 Reference value :  1.69001e-04
 Reference value :  1.69002e-04
 Reference value :  1.69003e-04
 Reference value :  1.69007e-04
 Reference value :  1.69008e-04
 Reference value :  1.69012e-04
 Reference value :  1.69028e-04
 Reference value :  1.69250e-04
 Reference value :  1.69250e-04
 Reference value :  1.69251e-04
 Reference value :  1.69253e-04
 Reference value :  1.69255e-04
 Reference value :  1.69259e-04
 Reference value :  1.69275e-04
 Reference value :  1.69500e-04
 Reference value :  1.69500e-04
 Reference value :  1.69501e-04
 Reference value :  1.69502e-04
 Reference value :  1.69505e-04
 Reference value :  1.69506e-04
 Reference value :  1.69510e-04
 Reference value :  1.69513e-04
 Reference value :  1.69518e-04
 Reference value :  1.69521e-04
 Reference value :  1.69529e-04
 Reference value :  1.69750e-04
 Reference value :  1.69750e-04
 Reference value :  1.69751e-04
 Reference value :  1.69752e-04
 Reference value :  1.69755e-04
 Reference value :  1.69763e-04
 Reference value :  1.69933e-04
 Reference value :  1.70000e-04
 Reference value :  1.70000e-04
 Reference value :  1.70000e-04
 Reference value :  1.70000e-04
 Reference value :  1.70001e-04
 Reference value :  1.70003e-04
 Reference value :  1.70004e-04
 Reference value :  1.70006e-04
 Reference value :  1.70009e-04
 Reference value :  1.70029e-04
 Reference value :  1.70034e-04
 Reference value :  1.70041e-04
 Reference value :  1.70048e-04
 Reference value :  1.70061e-04
 Reference value :  1.70103e-04
 Reference value :  1.70250e-04
 Reference value :  1.70250e-04
 Reference value :  1.70251e-04
 Reference value :  1.70253e-04
 Reference value :  1.70255e-04
 Reference value :  1.70258e-04
 Reference value :  1.70265e-04
 Reference value :  1.70487e-04
 Reference value :  1.70500e-04
 Reference value :  1.70500e-04
 Reference value :  1.70501e-04
 Reference value :  1.70502e-04
 Reference value :  1.70503e-04
 Reference value :  1.70505e-04
 Reference value :  1.70507e-04
 Reference value :  1.70509e-04
 Reference value :  1.70513e-04
 Reference value :  1.70516e-04
 Reference value :  1.70520e-04
 Reference value :  1.70562e-04
 Reference value :  1.70750e-04
 Reference value :  1.70750e-04
 Reference value :  1.70751e-04
 Reference value :  1.70753e-04
 Reference value :  1.70755e-04
 Reference value :  1.70757e-04
 Reference value :  1.70765e-04
 Reference value :  1.70887e-04
 Reference value :  1.71000e-04
 Reference value :  1.71000e-04
 Reference value :  1.71001e-04
 Reference value :  1.71002e-04
 Reference value :  1.71004e-04
 Reference value :  1.71005e-04
 Reference value :  1.71006e-04
 Reference value :  1.71009e-04
 Reference value :  1.71013e-04
 Reference value :  1.71014e-04
 Reference value :  1.71015e-04
 Reference value :  1.71018e-04
 Reference value :  1.71019e-04
 Reference value :  1.71022e-04
 Reference value :  1.71029e-04
 Reference value :  1.71054e-04
 Reference value :  1.71067e-04
 Reference value :  1.71087e-04
 Reference value :  1.71103e-04
 Reference value :  1.71116e-04
 Reference value :  1.71182e-04
 Reference value :  1.71250e-04
 Reference value :  1.71250e-04
 Reference value :  1.71250e-04
 Reference value :  1.71251e-04
 Reference value :  1.71252e-04
 Reference value :  1.71254e-04
 Reference value :  1.71255e-04
 Reference value :  1.71257e-04
 Reference value :  1.71262e-04
 Reference value :  1.71283e-04
 Reference value :  1.71388e-04
 Reference value :  1.71500e-04
 Reference value :  1.71500e-04
 Reference value :  1.71500e-04
 Reference value :  1.71501e-04
 Reference value :  1.71501e-04
 Reference value :  1.71502e-04
 Reference value :  1.71504e-04
 Reference value :  1.71506e-04
 Reference value :  1.71508e-04
 Reference value :  1.71509e-04
 Reference value :  1.71513e-04
 Reference value :  1.71528e-04
 Reference value :  1.71615e-04
 Reference value :  1.71750e-04
 Reference value :  1.71750e-04
 Reference value :  1.71750e-04
 Reference value :  1.71751e-04
 Reference value :  1.71752e-04
 Reference value :  1.71753e-04
 Reference value :  1.71755e-04
 Reference value :  1.71756e-04
 Reference value :  1.71757e-04
 Reference value :  1.71759e-04
 Reference value :  1.71760e-04
 Reference value :  1.71763e-04
 Reference value :  1.71769e-04
 Reference value :  1.71784e-04
 Reference value :  1.71858e-04
 Reference value :  1.72000e-04
 Reference value :  1.72000e-04
 Reference value :  1.72000e-04
 Reference value :  1.72001e-04
 Reference value :  1.72001e-04
 Reference value :  1.72002e-04
 Reference value :  1.72003e-04
 Reference value :  1.72005e-04
 Reference value :  1.72006e-04
 Reference value :  1.72006e-04
 Reference value :  1.72008e-04
 Reference value :  1.72010e-04
 Reference value :  1.72011e-04
 Reference value :  1.72014e-04
 Reference value :  1.72016e-04
 Reference value :  1.72018e-04
 Reference value :  1.72021e-04
 Reference value :  1.72024e-04
 Reference value :  1.72038e-04
 Reference value :  1.72104e-04
 Reference value :  1.72141e-04
 Reference value :  1.72172e-04
 Reference value :  1.72193e-04
 Reference value :  1.72250e-04
 Reference value :  1.72250e-04
 Reference value :  1.72250e-04
 Reference value :  1.72250e-04
 Reference value :  1.72251e-04
 Reference value :  1.72252e-04
 Reference value :  1.72253e-04
 Reference value :  1.72254e-04
 Reference value :  1.72255e-04
 Reference value :  1.72256e-04
 Reference value :  1.72258e-04
 Reference value :  1.72265e-04
 Reference value :  1.72299e-04
 Reference value :  1.72364e-04
 Reference value :  1.72401e-04
 Reference value :  1.72426e-04
 Reference value :  1.72439e-04
 Reference value :  1.72451e-04
 Reference value :  1.72488e-04
 Reference value :  1.72500e-04
 Reference value :  1.72500e-04
 Reference value :  1.72501e-04
 Reference value :  1.72501e-04
 Reference value :  1.72502e-04
 Reference value :  1.72504e-04
 Reference value :  1.72506e-04
 Reference value :  1.72508e-04
 Reference value :  1.72509e-04
 Reference value :  1.72513e-04
 Reference value :  1.72521e-04
 Reference value :  1.72566e-04
 Reference value :  1.72750e-04
 Reference value :  1.72750e-04
 Reference value :  1.72750e-04
 Reference value :  1.72750e-04
 Reference value :  1.72751e-04
 Reference value :  1.72752e-04
 Reference value :  1.72754e-04
 Reference value :  1.72755e-04
 Reference value :  1.72757e-04
 Reference value :  1.72759e-04
 Reference value :  1.72761e-04
 Reference value :  1.72769e-04
 Reference value :  1.72799e-04
 Reference value :  1.72916e-04
 Reference value :  1.73000e-04
 Reference value :  1.73000e-04
 Reference value :  1.73000e-04
 Reference value :  1.73001e-04
 Reference value :  1.73001e-04
 Reference value :  1.73002e-04
 Reference value :  1.73004e-04
 Reference value :  1.73005e-04
 Reference value :  1.73006e-04
 Reference value :  1.73007e-04
 Reference value :  1.73010e-04
 Reference value :  1.73013e-04
 Reference value :  1.73016e-04
 Reference value :  1.73020e-04
 Reference value :  1.73025e-04
 Reference value :  1.73037e-04
 Reference value :  1.73046e-04
 Reference value :  1.73051e-04
 Reference value :  1.73063e-04
 Reference value :  1.73132e-04
 Reference value :  1.73250e-04
 Reference value :  1.73250e-04
 Reference value :  1.73251e-04
 Reference value :  1.73253e-04
 Reference value :  1.73255e-04
 Reference value :  1.73258e-04
 Reference value :  1.73281e-04
 Reference value :  1.73500e-04
 Reference value :  1.73500e-04
 Reference value :  1.73500e-04
 Reference value :  1.73500e-04
 Reference value :  1.73501e-04
 Reference value :  1.73503e-04
 Reference value :  1.73505e-04
 Reference value :  1.73507e-04
 Reference value :  1.73509e-04
 Reference value :  1.73512e-04
 Reference value :  1.73589e-04
 Reference value :  1.73750e-04
 Reference value :  1.73750e-04
 Reference value :  1.73750e-04
 Reference value :  1.73752e-04
 Reference value :  1.73753e-04
 Reference value :  1.73754e-04
 Reference value :  1.73756e-04
 Reference value :  1.73762e-04
 Reference value :  1.73831e-04
 Reference value :  1.74000e-04
 Reference value :  1.74000e-04
 Reference value :  1.74000e-04
 Reference value :  1.74001e-04
 Reference value :  1.74001e-04
 Reference value :  1.74002e-04
 Reference value :  1.74003e-04
 Reference value :  1.74005e-04
 Reference value :  1.74006e-04
 Reference value :  1.74008e-04
 Reference value :  1.74014e-04
 Reference value :  1.74017e-04
 Reference value :  1.74019e-04
 Reference value :  1.74029e-04
 Reference value :  1.74054e-04
 Reference value :  1.74073e-04
 Reference value :  1.74088e-04
 Reference value :  1.74122e-04
 Reference value :  1.74169e-04
 Reference value :  1.74193e-04
 Reference value :  1.74238e-04
 Reference value :  1.74250e-04
 Reference value :  1.74250e-04
 Reference value :  1.74251e-04
 Reference value :  1.74252e-04
 Reference value :  1.74254e-04
 Reference value :  1.74256e-04
 Reference value :  1.74259e-04
 Reference value :  1.74298e-04
 Reference value :  1.74500e-04
 Reference value :  1.74500e-04
 Reference value :  1.74500e-04
 Reference value :  1.74501e-04
 Reference value :  1.74503e-04
 Reference value :  1.74505e-04
 Reference value :  1.74507e-04
 Reference value :  1.74510e-04
 Reference value :  1.74531e-04
 Reference value :  1.74750e-04
 Reference value :  1.74750e-04
 Reference value :  1.74750e-04
 Reference value :  1.74752e-04
 Reference value :  1.74753e-04
 Reference value :  1.74755e-04
 Reference value :  1.74757e-04
 Reference value :  1.74766e-04
 Reference value :  1.74800e-04
 Reference value :  1.75000e-04
 Reference value :  1.75000e-04
 Reference value :  1.75000e-04
 Reference value :  1.75001e-04
 Reference value :  1.75003e-04
 Reference value :  1.75005e-04
 Reference value :  1.75006e-04
 Reference value :  1.75007e-04
 Reference value :  1.75011e-04
 Reference value :  1.75014e-04
 Reference value :  1.75017e-04
 Reference value :  1.75019e-04
 Reference value :  1.75023e-04
 Reference value :  1.75033e-04
 Reference value :  1.75051e-04
 Reference value :  1.75061e-04
 Reference value :  1.75073e-04
 Reference value :  1.75111e-04
 Reference value :  1.75250e-04
 Reference value :  1.75250e-04
 Reference value :  1.75250e-04
 Reference value :  1.75251e-04
 Reference value :  1.75252e-04
 Reference value :  1.75253e-04
 Reference value :  1.75255e-04
 Reference value :  1.75257e-04
 Reference value :  1.75266e-04
 Reference value :  1.75388e-04
 Reference value :  1.75500e-04
 Reference value :  1.75500e-04
 Reference value :  1.75501e-04
 Reference value :  1.75502e-04
 Reference value :  1.75505e-04
 Reference value :  1.75508e-04
 Reference value :  1.75511e-04
 Reference value :  1.75517e-04
 Reference value :  1.75615e-04
 Reference value :  1.75750e-04
 Reference value :  1.75750e-04
 Reference value :  1.75751e-04
 Reference value :  1.75753e-04
 Reference value :  1.75755e-04
 Reference value :  1.75757e-04
 Reference value :  1.75761e-04
 Reference value :  1.75784e-04
 Reference value :  1.76000e-04
 Reference value :  1.76000e-04
 Reference value :  1.76001e-04
 Reference value :  1.76002e-04
 Reference value :  1.76003e-04
 Reference value :  1.76005e-04
 Reference value :  1.76006e-04
 Reference value :  1.76008e-04
 Reference value :  1.76011e-04
 Reference value :  1.76014e-04
 Reference value :  1.76016e-04
 Reference value :  1.76019e-04
 Reference value :  1.76021e-04
 Reference value :  1.76025e-04
 Reference value :  1.76028e-04
 Reference value :  1.76034e-04
 Reference value :  1.76083e-04
 Reference value :  1.76250e-04
 Reference value :  1.76250e-04
 Reference value :  1.76250e-04
 Reference value :  1.76251e-04
 Reference value :  1.76252e-04
 Reference value :  1.76254e-04
 Reference value :  1.76255e-04
 Reference value :  1.76258e-04
 Reference value :  1.76271e-04
 Reference value :  1.76330e-04
 Reference value :  1.76500e-04
 Reference value :  1.76500e-04
 Reference value :  1.76500e-04
 Reference value :  1.76501e-04
 Reference value :  1.76502e-04
 Reference value :  1.76504e-04
 Reference value :  1.76505e-04
 Reference value :  1.76507e-04
 Reference value :  1.76509e-04
 Reference value :  1.76510e-04
 Reference value :  1.76512e-04
 Reference value :  1.76521e-04
 Reference value :  1.76589e-04
 Reference value :  1.76750e-04
 Reference value :  1.76750e-04
 Reference value :  1.76750e-04
 Reference value :  1.76751e-04
 Reference value :  1.76752e-04
 Reference value :  1.76754e-04
 Reference value :  1.76755e-04
 Reference value :  1.76758e-04
 Reference value :  1.76772e-04
 Reference value :  1.76885e-04
 Reference value :  1.77000e-04
 Reference value :  1.77000e-04
 Reference value :  1.77000e-04
 Reference value :  1.77001e-04
 Reference value :  1.77001e-04
 Reference value :  1.77002e-04
 Reference value :  1.77003e-04
 Reference value :  1.77005e-04
 Reference value :  1.77006e-04
 Reference value :  1.77007e-04
 Reference value :  1.77011e-04
 Reference value :  1.77014e-04
 Reference value :  1.77015e-04
 Reference value :  1.77018e-04
 Reference value :  1.77020e-04
 Reference value :  1.77023e-04
 Reference value :  1.77033e-04
 Reference value :  1.77068e-04
 Reference value :  1.77170e-04
 Reference value :  1.77211e-04
 Reference value :  1.77250e-04
 Reference value :  1.77250e-04
 Reference value :  1.77250e-04
 Reference value :  1.77250e-04
 Reference value :  1.77251e-04
 Reference value :  1.77252e-04
 Reference value :  1.77253e-04
 Reference value :  1.77255e-04
 Reference value :  1.77256e-04
 Reference value :  1.77257e-04
 Reference value :  1.77259e-04
 Reference value :  1.77281e-04
 Reference value :  1.77498e-04
 Reference value :  1.77500e-04
 Reference value :  1.77500e-04
 Reference value :  1.77501e-04
 Reference value :  1.77502e-04
 Reference value :  1.77503e-04
 Reference value :  1.77505e-04
 Reference value :  1.77506e-04
 Reference value :  1.77508e-04
 Reference value :  1.77510e-04
 Reference value :  1.77512e-04
 Reference value :  1.77531e-04
 Reference value :  1.77750e-04
 Reference value :  1.77750e-04
 Reference value :  1.77750e-04
 Reference value :  1.77751e-04
 Reference value :  1.77752e-04
 Reference value :  1.77753e-04
 Reference value :  1.77755e-04
 Reference value :  1.77757e-04
 Reference value :  1.77760e-04
 Reference value :  1.77765e-04
 Reference value :  1.77800e-04
 Reference value :  1.77978e-04
 Reference value :  1.78000e-04
 Reference value :  1.78000e-04
 Reference value :  1.78000e-04
 Reference value :  1.78001e-04
 Reference value :  1.78002e-04
 Reference value :  1.78003e-04
 Reference value :  1.78005e-04
 Reference value :  1.78006e-04
 Reference value :  1.78007e-04
 Reference value :  1.78009e-04
 Reference value :  1.78013e-04
 Reference value :  1.78023e-04
 Reference value :  1.78085e-04
 Reference value :  1.78250e-04
 Reference value :  1.78250e-04
 Reference value :  1.78250e-04
 Reference value :  1.78251e-04
 Reference value :  1.78252e-04
 Reference value :  1.78253e-04
 Reference value :  1.78254e-04
 Reference value :  1.78257e-04
 Reference value :  1.78266e-04
 Reference value :  1.78316e-04
 Reference value :  1.78500e-04
No. of Data Rows : 26649
ngspice-44 done
