
Note: Compatibility modes selected: hs a


Circuit: ** sch_path: /home/samantha/cace/sar-adc-using-sky130-pdk/runs/run_2025-09-03_20-41-05/parameters/sampling_rate/run_00/sampling_rate.sch

option SCALE: Scale is set to 1e-06 for instance and model parameters
option SCALE: Scale is set to 1e-06 for instance and model parameters
option SCALE: Scale is set to 1e-06 for instance and model parameters
option SCALE: Scale is set to 1e-06 for instance and model parameters
Doing analysis at TEMP = 27.000000 and TNOM = 27.000000

Using KLU as Direct Linear Solver
Operating point simulation skipped by 'uic',
  now using transient initial conditions.
 Reference value :  1.00000e-12
 Reference value :  1.02800e-12
 Reference value :  1.19600e-12
 Reference value :  1.42000e-12
 Reference value :  2.37490e-12
 Reference value :  4.47282e-12
 Reference value :  9.57962e-12
 Reference value :  1.35021e-11
 Reference value :  3.16769e-11
 Reference value :  1.00000e-10
 Reference value :  1.14459e-10
 Reference value :  1.72293e-10
 Reference value :  4.03631e-10
 Reference value :  9.57210e-10
 Reference value :  1.86973e-09
 Reference value :  2.51384e-09
 Reference value :  4.19996e-09
 Reference value :  5.95734e-09
 Reference value :  7.97626e-09
 Reference value :  8.85528e-09
 Reference value :  1.07870e-08
 Reference value :  1.19480e-08
 Reference value :  1.69496e-08
 Reference value :  2.03213e-08
 Reference value :  2.34553e-08
 Reference value :  2.98018e-08
 Reference value :  3.32681e-08
 Reference value :  4.57453e-08
 Reference value :  8.55806e-08
 Reference value :  1.38694e-07
 Reference value :  2.50100e-07
 Reference value :  2.50110e-07
 Reference value :  2.50170e-07
 Reference value :  2.50207e-07
 Reference value :  2.50222e-07
 Reference value :  2.50252e-07
 Reference value :  2.50311e-07
 Reference value :  2.50545e-07
 Reference value :  2.50998e-07
 Reference value :  2.51916e-07
 Reference value :  2.53070e-07
 Reference value :  2.53889e-07
 Reference value :  2.54456e-07
 Reference value :  2.55815e-07
 Reference value :  2.57581e-07
 Reference value :  2.60589e-07
 Reference value :  2.66525e-07
 Reference value :  3.03550e-07
 Reference value :  4.07011e-07
 Reference value :  5.00010e-07
 Reference value :  5.00070e-07
 Reference value :  5.00108e-07
 Reference value :  5.00156e-07
 Reference value :  5.00348e-07
 Reference value :  5.00863e-07
 Reference value :  5.01300e-07
 Reference value :  5.02206e-07
 Reference value :  5.03307e-07
 Reference value :  5.04852e-07
 Reference value :  5.06778e-07
 Reference value :  5.09638e-07
 Reference value :  5.10930e-07
 Reference value :  5.12292e-07
 Reference value :  5.13995e-07
 Reference value :  5.17853e-07
 Reference value :  5.22494e-07
 Reference value :  5.41467e-07
 Reference value :  5.84581e-07
 Reference value :  7.16966e-07
 Reference value :  7.50110e-07
 Reference value :  7.50170e-07
 Reference value :  7.50208e-07
 Reference value :  7.50254e-07
 Reference value :  7.50441e-07
 Reference value :  7.50849e-07
 Reference value :  7.51751e-07
 Reference value :  7.52826e-07
 Reference value :  7.53589e-07
 Reference value :  7.54155e-07
 Reference value :  7.54810e-07
 Reference value :  7.55395e-07
 Reference value :  7.56899e-07
 Reference value :  7.58713e-07
 Reference value :  7.59905e-07
 Reference value :  7.62913e-07
 Reference value :  7.68578e-07
 Reference value :  7.83095e-07
 Reference value :  8.20043e-07
 Reference value :  9.14184e-07
 Reference value :  1.00001e-06
 Reference value :  1.00003e-06
 Reference value :  1.00010e-06
 Reference value :  1.00012e-06
 Reference value :  1.00022e-06
 Reference value :  1.00052e-06
 Reference value :  1.00130e-06
 Reference value :  1.00224e-06
 Reference value :  1.00276e-06
 Reference value :  1.00403e-06
 Reference value :  1.00457e-06
 Reference value :  1.00521e-06
 Reference value :  1.00581e-06
 Reference value :  1.00649e-06
 Reference value :  1.00806e-06
 Reference value :  1.01047e-06
 Reference value :  1.01146e-06
 Reference value :  1.01254e-06
 Reference value :  1.01356e-06
 Reference value :  1.01544e-06
 Reference value :  1.01734e-06
 Reference value :  1.01951e-06
 Reference value :  1.02080e-06
 Reference value :  1.02418e-06
 Reference value :  1.03183e-06
 Reference value :  1.05396e-06
 Reference value :  1.12006e-06
 Reference value :  1.25010e-06
 Reference value :  1.25013e-06
 Reference value :  1.25020e-06
 Reference value :  1.25022e-06
 Reference value :  1.25032e-06
 Reference value :  1.25061e-06
 Reference value :  1.25126e-06
 Reference value :  1.25175e-06
 Reference value :  1.25283e-06
 Reference value :  1.25363e-06
 Reference value :  1.25420e-06
 Reference value :  1.25547e-06
 Reference value :  1.25711e-06
 Reference value :  1.26004e-06
 Reference value :  1.26623e-06
 Reference value :  1.28763e-06
 Reference value :  1.37321e-06
 Reference value :  1.50000e-06
 Reference value :  1.50003e-06
 Reference value :  1.50010e-06
 Reference value :  1.50012e-06
 Reference value :  1.50016e-06
 Reference value :  1.50035e-06
 Reference value :  1.50086e-06
 Reference value :  1.50130e-06
 Reference value :  1.50221e-06
 Reference value :  1.50331e-06
 Reference value :  1.50485e-06
 Reference value :  1.50674e-06
 Reference value :  1.50756e-06
 Reference value :  1.50950e-06
 Reference value :  1.51178e-06
 Reference value :  1.51551e-06
 Reference value :  1.52584e-06
 Reference value :  1.56173e-06
 Reference value :  1.70355e-06
 Reference value :  1.75011e-06
 Reference value :  1.75017e-06
 Reference value :  1.75021e-06
 Reference value :  1.75026e-06
 Reference value :  1.75045e-06
 Reference value :  1.75086e-06
 Reference value :  1.75176e-06
 Reference value :  1.75284e-06
 Reference value :  1.75361e-06
 Reference value :  1.75417e-06
 Reference value :  1.75540e-06
 Reference value :  1.75688e-06
 Reference value :  1.75869e-06
 Reference value :  1.76111e-06
 Reference value :  1.76524e-06
 Reference value :  1.77449e-06
 Reference value :  1.79676e-06
 Reference value :  1.85279e-06
 Reference value :  2.00000e-06
 Reference value :  2.00003e-06
 Reference value :  2.00010e-06
 Reference value :  2.00012e-06
 Reference value :  2.00022e-06
 Reference value :  2.00052e-06
 Reference value :  2.00130e-06
 Reference value :  2.00223e-06
 Reference value :  2.00340e-06
 Reference value :  2.00457e-06
 Reference value :  2.00520e-06
 Reference value :  2.00581e-06
 Reference value :  2.00649e-06
 Reference value :  2.00806e-06
 Reference value :  2.01047e-06
 Reference value :  2.01147e-06
 Reference value :  2.01255e-06
 Reference value :  2.01356e-06
 Reference value :  2.01468e-06
 Reference value :  2.01544e-06
 Reference value :  2.01735e-06
 Reference value :  2.01953e-06
 Reference value :  2.02082e-06
 Reference value :  2.02422e-06
 Reference value :  2.03200e-06
 Reference value :  2.05422e-06
 Reference value :  2.17200e-06
 Reference value :  2.25011e-06
 Reference value :  2.25017e-06
 Reference value :  2.25021e-06
 Reference value :  2.25025e-06
 Reference value :  2.25044e-06
 Reference value :  2.25085e-06
 Reference value :  2.25175e-06
 Reference value :  2.25283e-06
 Reference value :  2.25420e-06
 Reference value :  2.25547e-06
 Reference value :  2.25711e-06
 Reference value :  2.26003e-06
 Reference value :  2.26623e-06
 Reference value :  2.28763e-06
 Reference value :  2.37322e-06
 Reference value :  2.50000e-06
 Reference value :  2.50003e-06
 Reference value :  2.50010e-06
 Reference value :  2.50012e-06
 Reference value :  2.50022e-06
 Reference value :  2.50052e-06
 Reference value :  2.50130e-06
 Reference value :  2.50221e-06
 Reference value :  2.50331e-06
 Reference value :  2.50404e-06
 Reference value :  2.50559e-06
 Reference value :  2.50756e-06
 Reference value :  2.50850e-06
 Reference value :  2.50950e-06
 Reference value :  2.51178e-06
 Reference value :  2.51918e-06
 Reference value :  2.53772e-06
 Reference value :  2.60738e-06
 Reference value :  2.75010e-06
 Reference value :  2.75013e-06
 Reference value :  2.75020e-06
 Reference value :  2.75022e-06
 Reference value :  2.75032e-06
 Reference value :  2.75062e-06
 Reference value :  2.75127e-06
 Reference value :  2.75226e-06
 Reference value :  2.75361e-06
 Reference value :  2.75417e-06
 Reference value :  2.75540e-06
 Reference value :  2.75688e-06
 Reference value :  2.75869e-06
 Reference value :  2.76111e-06
 Reference value :  2.76524e-06
 Reference value :  2.78274e-06
 Reference value :  2.85282e-06
 Reference value :  3.00000e-06
 Reference value :  3.00003e-06
 Reference value :  3.00010e-06
 Reference value :  3.00012e-06
 Reference value :  3.00022e-06
 Reference value :  3.00052e-06
 Reference value :  3.00130e-06
 Reference value :  3.00223e-06
 Reference value :  3.00340e-06
 Reference value :  3.00457e-06
 Reference value :  3.00520e-06
 Reference value :  3.00581e-06
 Reference value :  3.00649e-06
 Reference value :  3.00806e-06
 Reference value :  3.01047e-06
 Reference value :  3.01147e-06
 Reference value :  3.01255e-06
 Reference value :  3.01356e-06
 Reference value :  3.01469e-06
 Reference value :  3.01543e-06
 Reference value :  3.01736e-06
 Reference value :  3.01954e-06
 Reference value :  3.02085e-06
 Reference value :  3.02426e-06
 Reference value :  3.04042e-06
 Reference value :  3.07938e-06
 Reference value :  3.18828e-06
 Reference value :  3.25010e-06
 Reference value :  3.25013e-06
 Reference value :  3.25020e-06
 Reference value :  3.25022e-06
 Reference value :  3.25032e-06
 Reference value :  3.25062e-06
 Reference value :  3.25127e-06
 Reference value :  3.25226e-06
 Reference value :  3.25364e-06
 Reference value :  3.25421e-06
 Reference value :  3.25548e-06
 Reference value :  3.25712e-06
 Reference value :  3.26006e-06
 Reference value :  3.26630e-06
 Reference value :  3.28774e-06
 Reference value :  3.48788e-06
 Reference value :  3.50001e-06
 Reference value :  3.50007e-06
 Reference value :  3.50010e-06
 Reference value :  3.50012e-06
 Reference value :  3.50022e-06
 Reference value :  3.50052e-06
 Reference value :  3.50130e-06
 Reference value :  3.50221e-06
 Reference value :  3.50331e-06
 Reference value :  3.50485e-06
 Reference value :  3.50674e-06
 Reference value :  3.50756e-06
 Reference value :  3.50950e-06
 Reference value :  3.51063e-06
 Reference value :  3.51326e-06
 Reference value :  3.51915e-06
 Reference value :  3.53750e-06
 Reference value :  3.60630e-06
 Reference value :  3.75010e-06
 Reference value :  3.75013e-06
 Reference value :  3.75020e-06
 Reference value :  3.75022e-06
 Reference value :  3.75032e-06
 Reference value :  3.75062e-06
 Reference value :  3.75127e-06
 Reference value :  3.75226e-06
 Reference value :  3.75284e-06
 Reference value :  3.75417e-06
 Reference value :  3.75482e-06
 Reference value :  3.75540e-06
 Reference value :  3.75604e-06
 Reference value :  3.75688e-06
 Reference value :  3.75869e-06
 Reference value :  3.76111e-06
 Reference value :  3.76524e-06
 Reference value :  3.77449e-06
 Reference value :  3.79677e-06
 Reference value :  3.85283e-06
 Reference value :  4.00001e-06
 Reference value :  4.00007e-06
 Reference value :  4.00011e-06
 Reference value :  4.00016e-06
 Reference value :  4.00035e-06
 Reference value :  4.00086e-06
 Reference value :  4.00130e-06
 Reference value :  4.00223e-06
 Reference value :  4.00340e-06
 Reference value :  4.00402e-06
 Reference value :  4.00457e-06
 Reference value :  4.00581e-06
 Reference value :  4.00649e-06
 Reference value :  4.00806e-06
 Reference value :  4.01047e-06
 Reference value :  4.01147e-06
 Reference value :  4.01255e-06
 Reference value :  4.01387e-06
 Reference value :  4.01641e-06
 Reference value :  4.01767e-06
 Reference value :  4.01882e-06
 Reference value :  4.02140e-06
 Reference value :  4.02501e-06
 Reference value :  4.03341e-06
 Reference value :  4.05799e-06
 Reference value :  4.10805e-06
 Reference value :  4.12127e-06
 Reference value :  4.15739e-06
 Reference value :  4.24733e-06
 Reference value :  4.25011e-06
 Reference value :  4.25017e-06
 Reference value :  4.25022e-06
 Reference value :  4.25032e-06
 Reference value :  4.25058e-06
 Reference value :  4.25105e-06
 Reference value :  4.25211e-06
 Reference value :  4.25339e-06
 Reference value :  4.25421e-06
 Reference value :  4.25480e-06
 Reference value :  4.25615e-06
 Reference value :  4.25700e-06
 Reference value :  4.25968e-06
 Reference value :  4.26548e-06
 Reference value :  4.30127e-06
 Reference value :  4.39603e-06
 Reference value :  4.50001e-06
 Reference value :  4.50007e-06
 Reference value :  4.50011e-06
 Reference value :  4.50016e-06
 Reference value :  4.50035e-06
 Reference value :  4.50060e-06
 Reference value :  4.50156e-06
 Reference value :  4.50257e-06
 Reference value :  4.50371e-06
 Reference value :  4.50512e-06
 Reference value :  4.50692e-06
 Reference value :  4.50765e-06
 Reference value :  4.50953e-06
 Reference value :  4.51167e-06
 Reference value :  4.51295e-06
 Reference value :  4.51698e-06
 Reference value :  4.52738e-06
 Reference value :  4.59702e-06
 Reference value :  4.75010e-06
 Reference value :  4.75013e-06
 Reference value :  4.75020e-06
 Reference value :  4.75022e-06
 Reference value :  4.75032e-06
 Reference value :  4.75058e-06
 Reference value :  4.75105e-06
 Reference value :  4.75157e-06
 Reference value :  4.75211e-06
 Reference value :  4.75339e-06
 Reference value :  4.75480e-06
 Reference value :  4.75624e-06
 Reference value :  4.75710e-06
 Reference value :  4.75899e-06
 Reference value :  4.76013e-06
 Reference value :  4.76334e-06
 Reference value :  4.76916e-06
 Reference value :  4.79826e-06
 Reference value :  4.91348e-06
 Reference value :  5.00001e-06
 Reference value :  5.00007e-06
 Reference value :  5.00011e-06
 Reference value :  5.00016e-06
 Reference value :  5.00035e-06
 Reference value :  5.00097e-06
 Reference value :  5.00156e-06
 Reference value :  5.00259e-06
 Reference value :  5.00374e-06
 Reference value :  5.00498e-06
 Reference value :  5.00559e-06
 Reference value :  5.00610e-06
 Reference value :  5.00742e-06
 Reference value :  5.00923e-06
 Reference value :  5.01176e-06
 Reference value :  5.01291e-06
 Reference value :  5.01415e-06
 Reference value :  5.01512e-06
 Reference value :  5.01728e-06
 Reference value :  5.01957e-06
 Reference value :  5.02229e-06
 Reference value :  5.02677e-06
 Reference value :  5.03885e-06
 Reference value :  5.06189e-06
 Reference value :  5.07893e-06
 Reference value :  5.10885e-06
 Reference value :  5.14969e-06
 Reference value :  5.25010e-06
 Reference value :  5.25013e-06
 Reference value :  5.25020e-06
 Reference value :  5.25022e-06
 Reference value :  5.25025e-06
 Reference value :  5.25040e-06
 Reference value :  5.25075e-06
 Reference value :  5.25152e-06
 Reference value :  5.25208e-06
 Reference value :  5.25259e-06
 Reference value :  5.25418e-06
 Reference value :  5.25478e-06
 Reference value :  5.25613e-06
 Reference value :  5.25697e-06
 Reference value :  5.25962e-06
 Reference value :  5.26533e-06
 Reference value :  5.28197e-06
 Reference value :  5.29966e-06
 Reference value :  5.38889e-06
 Reference value :  5.50000e-06
 Reference value :  5.50003e-06
 Reference value :  5.50010e-06
 Reference value :  5.50012e-06
 Reference value :  5.50022e-06
 Reference value :  5.50060e-06
 Reference value :  5.50097e-06
 Reference value :  5.50156e-06
 Reference value :  5.50257e-06
 Reference value :  5.50312e-06
 Reference value :  5.50371e-06
 Reference value :  5.50512e-06
 Reference value :  5.50589e-06
 Reference value :  5.50691e-06
 Reference value :  5.50764e-06
 Reference value :  5.50848e-06
 Reference value :  5.50952e-06
 Reference value :  5.51166e-06
 Reference value :  5.51293e-06
 Reference value :  5.51697e-06
 Reference value :  5.52741e-06
 Reference value :  5.53900e-06
 Reference value :  5.55854e-06
 Reference value :  5.67578e-06
 Reference value :  5.75011e-06
 Reference value :  5.75017e-06
 Reference value :  5.75020e-06
 Reference value :  5.75022e-06
 Reference value :  5.75025e-06
 Reference value :  5.75040e-06
 Reference value :  5.75078e-06
 Reference value :  5.75157e-06
 Reference value :  5.75266e-06
 Reference value :  5.75339e-06
 Reference value :  5.75421e-06
 Reference value :  5.75480e-06
 Reference value :  5.75624e-06
 Reference value :  5.75711e-06
 Reference value :  5.75805e-06
 Reference value :  5.75900e-06
 Reference value :  5.76014e-06
 Reference value :  5.76335e-06
 Reference value :  5.76919e-06
 Reference value :  5.77520e-06
 Reference value :  5.79838e-06
 Reference value :  5.85649e-06
 Reference value :  5.91397e-06
 Reference value :  6.00001e-06
 Reference value :  6.00003e-06
 Reference value :  6.00007e-06
 Reference value :  6.00011e-06
 Reference value :  6.00016e-06
 Reference value :  6.00035e-06
 Reference value :  6.00060e-06
 Reference value :  6.00097e-06
 Reference value :  6.00156e-06
 Reference value :  6.00211e-06
 Reference value :  6.00259e-06
 Reference value :  6.00315e-06
 Reference value :  6.00374e-06
 Reference value :  6.00498e-06
 Reference value :  6.00559e-06
 Reference value :  6.00610e-06
 Reference value :  6.00669e-06
 Reference value :  6.00824e-06
 Reference value :  6.00923e-06
 Reference value :  6.01078e-06
 Reference value :  6.01176e-06
 Reference value :  6.01415e-06
 Reference value :  6.01512e-06
 Reference value :  6.01725e-06
 Reference value :  6.01955e-06
 Reference value :  6.02093e-06
 Reference value :  6.02221e-06
 Reference value :  6.02662e-06
 Reference value :  6.03511e-06
 Reference value :  6.04379e-06
 Reference value :  6.05837e-06
 Reference value :  6.09874e-06
 Reference value :  6.20550e-06
 Reference value :  6.25011e-06
 Reference value :  6.25017e-06
 Reference value :  6.25020e-06
 Reference value :  6.25025e-06
 Reference value :  6.25040e-06
 Reference value :  6.25075e-06
 Reference value :  6.25152e-06
 Reference value :  6.25208e-06
 Reference value :  6.25259e-06
 Reference value :  6.25418e-06
 Reference value :  6.25478e-06
 Reference value :  6.25613e-06
 Reference value :  6.25697e-06
 Reference value :  6.25962e-06
 Reference value :  6.26533e-06
 Reference value :  6.27111e-06
 Reference value :  6.29957e-06
 Reference value :  6.38828e-06
 Reference value :  6.50000e-06
 Reference value :  6.50001e-06
 Reference value :  6.50003e-06
 Reference value :  6.50010e-06
 Reference value :  6.50012e-06
 Reference value :  6.50022e-06
 Reference value :  6.50060e-06
 Reference value :  6.50097e-06
 Reference value :  6.50156e-06
 Reference value :  6.50257e-06
 Reference value :  6.50371e-06
 Reference value :  6.50443e-06
 Reference value :  6.50589e-06
 Reference value :  6.50691e-06
 Reference value :  6.50764e-06
 Reference value :  6.50952e-06
 Reference value :  6.51166e-06
 Reference value :  6.51293e-06
 Reference value :  6.51433e-06
 Reference value :  6.52069e-06
 Reference value :  6.53890e-06
 Reference value :  6.59719e-06
 Reference value :  6.75010e-06
 Reference value :  6.75013e-06
 Reference value :  6.75020e-06
 Reference value :  6.75022e-06
 Reference value :  6.75032e-06
 Reference value :  6.75058e-06
 Reference value :  6.75078e-06
 Reference value :  6.75157e-06
 Reference value :  6.75210e-06
 Reference value :  6.75339e-06
 Reference value :  6.75421e-06
 Reference value :  6.75480e-06
 Reference value :  6.75624e-06
 Reference value :  6.75711e-06
 Reference value :  6.75805e-06
 Reference value :  6.75900e-06
 Reference value :  6.76014e-06
 Reference value :  6.76335e-06
 Reference value :  6.76560e-06
 Reference value :  6.77519e-06
 Reference value :  6.79836e-06
 Reference value :  6.85639e-06
 Reference value :  7.00000e-06
 Reference value :  7.00001e-06
 Reference value :  7.00003e-06
 Reference value :  7.00007e-06
 Reference value :  7.00010e-06
 Reference value :  7.00012e-06
 Reference value :  7.00022e-06
 Reference value :  7.00035e-06
 Reference value :  7.00060e-06
 Reference value :  7.00156e-06
 Reference value :  7.00211e-06
 Reference value :  7.00259e-06
 Reference value :  7.00374e-06
 Reference value :  7.00442e-06
 Reference value :  7.00498e-06
 Reference value :  7.00559e-06
 Reference value :  7.00610e-06
 Reference value :  7.00742e-06
 Reference value :  7.00824e-06
 Reference value :  7.01078e-06
 Reference value :  7.01177e-06
 Reference value :  7.01292e-06
 Reference value :  7.01415e-06
 Reference value :  7.01512e-06
 Reference value :  7.01606e-06
 Reference value :  7.01724e-06
 Reference value :  7.01834e-06
 Reference value :  7.01953e-06
 Reference value :  7.02090e-06
 Reference value :  7.02418e-06
 Reference value :  7.02633e-06
 Reference value :  7.02913e-06
 Reference value :  7.03842e-06
 Reference value :  7.06755e-06
 Reference value :  7.17435e-06
 Reference value :  7.25011e-06
 Reference value :  7.25020e-06
 Reference value :  7.25025e-06
 Reference value :  7.25040e-06
 Reference value :  7.25075e-06
 Reference value :  7.25152e-06
 Reference value :  7.25258e-06
 Reference value :  7.25418e-06
 Reference value :  7.25478e-06
 Reference value :  7.25613e-06
 Reference value :  7.25697e-06
 Reference value :  7.25962e-06
 Reference value :  7.26533e-06
 Reference value :  7.28190e-06
 Reference value :  7.33177e-06
 Reference value :  7.48583e-06
 Reference value :  7.50001e-06
 Reference value :  7.50007e-06
 Reference value :  7.50011e-06
 Reference value :  7.50012e-06
 Reference value :  7.50022e-06
 Reference value :  7.50035e-06
 Reference value :  7.50060e-06
 Reference value :  7.50097e-06
 Reference value :  7.50212e-06
 Reference value :  7.50257e-06
 Reference value :  7.50371e-06
 Reference value :  7.50512e-06
 Reference value :  7.50691e-06
 Reference value :  7.50764e-06
 Reference value :  7.50952e-06
 Reference value :  7.51166e-06
 Reference value :  7.51292e-06
 Reference value :  7.51695e-06
 Reference value :  7.52732e-06
 Reference value :  7.55816e-06
 Reference value :  7.67425e-06
 Reference value :  7.75011e-06
 Reference value :  7.75017e-06
 Reference value :  7.75021e-06
 Reference value :  7.75025e-06
 Reference value :  7.75040e-06
 Reference value :  7.75078e-06
 Reference value :  7.75157e-06
 Reference value :  7.75266e-06
 Reference value :  7.75421e-06
 Reference value :  7.75480e-06
 Reference value :  7.75624e-06
 Reference value :  7.75711e-06
 Reference value :  7.75900e-06
 Reference value :  7.76140e-06
 Reference value :  7.76560e-06
 Reference value :  7.77519e-06
 Reference value :  7.79834e-06
 Reference value :  7.85630e-06
 Reference value :  8.00000e-06
 Reference value :  8.00003e-06
 Reference value :  8.00010e-06
 Reference value :  8.00012e-06
 Reference value :  8.00022e-06
 Reference value :  8.00060e-06
 Reference value :  8.00156e-06
 Reference value :  8.00259e-06
 Reference value :  8.00374e-06
 Reference value :  8.00497e-06
 Reference value :  8.00558e-06
 Reference value :  8.00609e-06
 Reference value :  8.00741e-06
 Reference value :  8.00823e-06
 Reference value :  8.00907e-06
 Reference value :  8.01078e-06
 Reference value :  8.01282e-06
 Reference value :  8.01391e-06
 Reference value :  8.01738e-06
 Reference value :  8.01836e-06
 Reference value :  8.02457e-06
 Reference value :  8.03842e-06
 Reference value :  8.07669e-06
 Reference value :  8.19421e-06
 Reference value :  8.25011e-06
 Reference value :  8.25017e-06
 Reference value :  8.25021e-06
 Reference value :  8.25026e-06
 Reference value :  8.25044e-06
 Reference value :  8.25081e-06
 Reference value :  8.25167e-06
 Reference value :  8.25275e-06
 Reference value :  8.25350e-06
 Reference value :  8.25531e-06
 Reference value :  8.25732e-06
 Reference value :  8.26058e-06
 Reference value :  8.26711e-06
 Reference value :  8.28578e-06
 Reference value :  8.34668e-06
 Reference value :  8.50001e-06
 Reference value :  8.50007e-06
 Reference value :  8.50011e-06
 Reference value :  8.50016e-06
 Reference value :  8.50035e-06
 Reference value :  8.50098e-06
 Reference value :  8.50151e-06
 Reference value :  8.50256e-06
 Reference value :  8.50374e-06
 Reference value :  8.50513e-06
 Reference value :  8.50569e-06
 Reference value :  8.50703e-06
 Reference value :  8.50937e-06
 Reference value :  8.51475e-06
 Reference value :  8.52718e-06
 Reference value :  8.53211e-06
 Reference value :  8.53577e-06
 Reference value :  8.54254e-06
 Reference value :  8.54557e-06
 Reference value :  8.55111e-06
 Reference value :  8.55707e-06
 Reference value :  8.56925e-06
 Reference value :  8.57998e-06
 Reference value :  8.66133e-06
 Reference value :  8.75010e-06
 Reference value :  8.75013e-06
 Reference value :  8.75020e-06
 Reference value :  8.75022e-06
 Reference value :  8.75032e-06
 Reference value :  8.75062e-06
 Reference value :  8.75127e-06
 Reference value :  8.75176e-06
 Reference value :  8.75284e-06
 Reference value :  8.75364e-06
 Reference value :  8.75421e-06
 Reference value :  8.75549e-06
 Reference value :  8.75708e-06
 Reference value :  8.76007e-06
 Reference value :  8.76635e-06
 Reference value :  8.77330e-06
 Reference value :  8.81500e-06
 Reference value :  8.98179e-06
No. of Data Rows : 1336
ngspice-44 done
