
Note: Compatibility modes selected: hs a


Circuit: ** sch_path: /home/samantha/cace/sar-adc-using-sky130-pdk/runs/run_2025-09-05_16-10-12/parameters/power/run_12/power_consumption.sch

option SCALE: Scale is set to 1e-06 for instance and model parameters
option SCALE: Scale is set to 1e-06 for instance and model parameters
option SCALE: Scale is set to 1e-06 for instance and model parameters
option SCALE: Scale is set to 1e-06 for instance and model parameters
Doing analysis at TEMP = 27.000000 and TNOM = 27.000000

Using KLU as Direct Linear Solver
 Reference value :  0.00000e+00
 Reference value :  1.00000e-12
 Reference value :  4.00000e-12
 Reference value :  8.00000e-12
 Reference value :  3.20000e-11
 Reference value :  6.40000e-11
 Reference value :  1.00000e-10
 Reference value :  1.19200e-10
 Reference value :  1.96000e-10
 Reference value :  2.98400e-10
 Reference value :  4.68998e-10
 Reference value :  7.13908e-10
 Reference value :  9.84652e-10
 Reference value :  1.85613e-09
 Reference value :  2.29914e-09
 Reference value :  2.70672e-09
 Reference value :  3.15133e-09
 Reference value :  3.64534e-09
 Reference value :  4.17186e-09
 Reference value :  4.72196e-09
 Reference value :  5.42073e-09
 Reference value :  7.01828e-09
 Reference value :  8.75833e-09
 Reference value :  9.72570e-09
 Reference value :  1.07849e-08
 Reference value :  1.16059e-08
 Reference value :  1.32602e-08
 Reference value :  1.53723e-08
 Reference value :  1.71514e-08
 Reference value :  2.08726e-08
 Reference value :  2.21800e-08
 Reference value :  2.34260e-08
 Reference value :  2.43067e-08
 Reference value :  2.75062e-08
 Reference value :  3.03783e-08
 Reference value :  3.48383e-08
 Reference value :  3.92331e-08
 Reference value :  4.38009e-08
 Reference value :  4.86931e-08
 Reference value :  6.09723e-08
 Reference value :  8.66155e-08
 Reference value :  1.54612e-07
 Reference value :  2.50100e-07
 Reference value :  2.50110e-07
 Reference value :  2.50130e-07
 Reference value :  2.50170e-07
 Reference value :  2.50200e-07
 Reference value :  2.50207e-07
 Reference value :  2.50247e-07
 Reference value :  2.50300e-07
 Reference value :  2.50518e-07
 Reference value :  2.50961e-07
 Reference value :  2.51402e-07
 Reference value :  2.51808e-07
 Reference value :  2.52879e-07
 Reference value :  2.53556e-07
 Reference value :  2.54091e-07
 Reference value :  2.55261e-07
 Reference value :  2.55974e-07
 Reference value :  2.57865e-07
 Reference value :  2.61805e-07
 Reference value :  2.70595e-07
 Reference value :  2.97151e-07
 Reference value :  3.80452e-07
 Reference value :  5.00000e-07
 Reference value :  5.00030e-07
 Reference value :  5.00100e-07
 Reference value :  5.00124e-07
 Reference value :  5.00218e-07
 Reference value :  5.00531e-07
 Reference value :  5.00884e-07
 Reference value :  5.01634e-07
 Reference value :  5.02580e-07
 Reference value :  5.03099e-07
 Reference value :  5.04255e-07
 Reference value :  5.05878e-07
 Reference value :  5.07091e-07
 Reference value :  5.09716e-07
 Reference value :  5.12379e-07
 Reference value :  5.14090e-07
 Reference value :  5.17811e-07
 Reference value :  5.24728e-07
 Reference value :  5.41901e-07
 Reference value :  5.87753e-07
 Reference value :  7.15647e-07
 Reference value :  7.50110e-07
 Reference value :  7.50130e-07
 Reference value :  7.50200e-07
 Reference value :  7.50224e-07
 Reference value :  7.50320e-07
 Reference value :  7.50629e-07
 Reference value :  7.51363e-07
 Reference value :  7.51772e-07
 Reference value :  7.52797e-07
 Reference value :  7.53498e-07
 Reference value :  7.53997e-07
 Reference value :  7.54572e-07
 Reference value :  7.55866e-07
 Reference value :  7.57841e-07
 Reference value :  7.62491e-07
 Reference value :  7.74746e-07
 Reference value :  8.13891e-07
 Reference value :  9.70474e-07
 Reference value :  1.00001e-06
 Reference value :  1.00007e-06
 Reference value :  1.00011e-06
 Reference value :  1.00016e-06
 Reference value :  1.00034e-06
 Reference value :  1.00089e-06
 Reference value :  1.00163e-06
 Reference value :  1.00259e-06
 Reference value :  1.00308e-06
 Reference value :  1.00420e-06
 Reference value :  1.00527e-06
 Reference value :  1.00675e-06
 Reference value :  1.00918e-06
 Reference value :  1.01119e-06
 Reference value :  1.01273e-06
 Reference value :  1.01403e-06
 Reference value :  1.01527e-06
 Reference value :  1.01781e-06
 Reference value :  1.01916e-06
 Reference value :  1.02053e-06
 Reference value :  1.02514e-06
 Reference value :  1.03659e-06
 Reference value :  1.07118e-06
 Reference value :  1.09942e-06
 Reference value :  1.12590e-06
 Reference value :  1.13931e-06
 Reference value :  1.15197e-06
 Reference value :  1.16461e-06
 Reference value :  1.17360e-06
 Reference value :  1.19745e-06
 Reference value :  1.24921e-06
 Reference value :  1.25011e-06
 Reference value :  1.25013e-06
 Reference value :  1.25017e-06
 Reference value :  1.25021e-06
 Reference value :  1.25022e-06
 Reference value :  1.25032e-06
 Reference value :  1.25063e-06
 Reference value :  1.25136e-06
 Reference value :  1.25177e-06
 Reference value :  1.25222e-06
 Reference value :  1.25280e-06
 Reference value :  1.25347e-06
 Reference value :  1.25397e-06
 Reference value :  1.25453e-06
 Reference value :  1.25576e-06
 Reference value :  1.25649e-06
 Reference value :  1.25795e-06
 Reference value :  1.26247e-06
 Reference value :  1.27297e-06
 Reference value :  1.31447e-06
 Reference value :  1.47952e-06
 Reference value :  1.50001e-06
 Reference value :  1.50007e-06
 Reference value :  1.50011e-06
 Reference value :  1.50012e-06
 Reference value :  1.50022e-06
 Reference value :  1.50034e-06
 Reference value :  1.50053e-06
 Reference value :  1.50088e-06
 Reference value :  1.50121e-06
 Reference value :  1.50159e-06
 Reference value :  1.50205e-06
 Reference value :  1.50252e-06
 Reference value :  1.50301e-06
 Reference value :  1.50356e-06
 Reference value :  1.50490e-06
 Reference value :  1.50563e-06
 Reference value :  1.50624e-06
 Reference value :  1.50697e-06
 Reference value :  1.50794e-06
 Reference value :  1.50889e-06
 Reference value :  1.51099e-06
 Reference value :  1.51479e-06
 Reference value :  1.52617e-06
 Reference value :  1.56532e-06
 Reference value :  1.71620e-06
 Reference value :  1.75011e-06
 Reference value :  1.75017e-06
 Reference value :  1.75021e-06
 Reference value :  1.75026e-06
 Reference value :  1.75045e-06
 Reference value :  1.75087e-06
 Reference value :  1.75177e-06
 Reference value :  1.75280e-06
 Reference value :  1.75350e-06
 Reference value :  1.75399e-06
 Reference value :  1.75517e-06
 Reference value :  1.75592e-06
 Reference value :  1.75752e-06
 Reference value :  1.75963e-06
 Reference value :  1.76353e-06
 Reference value :  1.77229e-06
 Reference value :  1.79352e-06
 Reference value :  1.84699e-06
 Reference value :  1.98480e-06
 Reference value :  2.00003e-06
 Reference value :  2.00010e-06
 Reference value :  2.00012e-06
 Reference value :  2.00022e-06
 Reference value :  2.00053e-06
 Reference value :  2.00089e-06
 Reference value :  2.00163e-06
 Reference value :  2.00259e-06
 Reference value :  2.00309e-06
 Reference value :  2.00365e-06
 Reference value :  2.00473e-06
 Reference value :  2.00523e-06
 Reference value :  2.00646e-06
 Reference value :  2.00820e-06
 Reference value :  2.01023e-06
 Reference value :  2.01121e-06
 Reference value :  2.01215e-06
 Reference value :  2.01384e-06
 Reference value :  2.01579e-06
 Reference value :  2.01781e-06
 Reference value :  2.02044e-06
 Reference value :  2.02998e-06
 Reference value :  2.07411e-06
 Reference value :  2.14393e-06
 Reference value :  2.17178e-06
 Reference value :  2.18803e-06
 Reference value :  2.20234e-06
 Reference value :  2.21587e-06
 Reference value :  2.24905e-06
 Reference value :  2.25011e-06
 Reference value :  2.25017e-06
 Reference value :  2.25021e-06
 Reference value :  2.25032e-06
 Reference value :  2.25063e-06
 Reference value :  2.25136e-06
 Reference value :  2.25177e-06
 Reference value :  2.25222e-06
 Reference value :  2.25352e-06
 Reference value :  2.25402e-06
 Reference value :  2.25516e-06
 Reference value :  2.25585e-06
 Reference value :  2.25805e-06
 Reference value :  2.26272e-06
 Reference value :  2.27395e-06
 Reference value :  2.31627e-06
 Reference value :  2.48045e-06
 Reference value :  2.50001e-06
 Reference value :  2.50007e-06
 Reference value :  2.50011e-06
 Reference value :  2.50016e-06
 Reference value :  2.50034e-06
 Reference value :  2.50053e-06
 Reference value :  2.50088e-06
 Reference value :  2.50164e-06
 Reference value :  2.50259e-06
 Reference value :  2.50308e-06
 Reference value :  2.50365e-06
 Reference value :  2.50493e-06
 Reference value :  2.50576e-06
 Reference value :  2.50642e-06
 Reference value :  2.50804e-06
 Reference value :  2.50992e-06
 Reference value :  2.51109e-06
 Reference value :  2.51479e-06
 Reference value :  2.52420e-06
 Reference value :  2.55146e-06
 Reference value :  2.65345e-06
 Reference value :  2.75011e-06
 Reference value :  2.75017e-06
 Reference value :  2.75021e-06
 Reference value :  2.75032e-06
 Reference value :  2.75063e-06
 Reference value :  2.75136e-06
 Reference value :  2.75177e-06
 Reference value :  2.75280e-06
 Reference value :  2.75350e-06
 Reference value :  2.75400e-06
 Reference value :  2.75518e-06
 Reference value :  2.75593e-06
 Reference value :  2.75804e-06
 Reference value :  2.76280e-06
 Reference value :  2.77484e-06
 Reference value :  2.81733e-06
 Reference value :  3.00000e-06
 Reference value :  3.00003e-06
 Reference value :  3.00010e-06
 Reference value :  3.00012e-06
 Reference value :  3.00022e-06
 Reference value :  3.00053e-06
 Reference value :  3.00121e-06
 Reference value :  3.00164e-06
 Reference value :  3.00211e-06
 Reference value :  3.00308e-06
 Reference value :  3.00420e-06
 Reference value :  3.00528e-06
 Reference value :  3.00586e-06
 Reference value :  3.00758e-06
 Reference value :  3.01121e-06
 Reference value :  3.01276e-06
 Reference value :  3.01406e-06
 Reference value :  3.01655e-06
 Reference value :  3.01921e-06
 Reference value :  3.02294e-06
 Reference value :  3.02980e-06
 Reference value :  3.03967e-06
 Reference value :  3.04486e-06
 Reference value :  3.04941e-06
 Reference value :  3.05419e-06
 Reference value :  3.06411e-06
 Reference value :  3.07062e-06
 Reference value :  3.08367e-06
 Reference value :  3.13205e-06
 Reference value :  3.22282e-06
 Reference value :  3.25013e-06
 Reference value :  3.25020e-06
 Reference value :  3.25022e-06
 Reference value :  3.25032e-06
 Reference value :  3.25063e-06
 Reference value :  3.25136e-06
 Reference value :  3.25177e-06
 Reference value :  3.25222e-06
 Reference value :  3.25347e-06
 Reference value :  3.25397e-06
 Reference value :  3.25507e-06
 Reference value :  3.25576e-06
 Reference value :  3.25795e-06
 Reference value :  3.26247e-06
 Reference value :  3.28695e-06
 Reference value :  3.36774e-06
 Reference value :  3.50001e-06
 Reference value :  3.50007e-06
 Reference value :  3.50011e-06
 Reference value :  3.50016e-06
 Reference value :  3.50034e-06
 Reference value :  3.50088e-06
 Reference value :  3.50159e-06
 Reference value :  3.50252e-06
 Reference value :  3.50301e-06
 Reference value :  3.50411e-06
 Reference value :  3.50563e-06
 Reference value :  3.50625e-06
 Reference value :  3.50795e-06
 Reference value :  3.50889e-06
 Reference value :  3.50985e-06
 Reference value :  3.51100e-06
 Reference value :  3.51227e-06
 Reference value :  3.51868e-06
 Reference value :  3.53943e-06
 Reference value :  3.61142e-06
 Reference value :  3.75010e-06
 Reference value :  3.75013e-06
 Reference value :  3.75020e-06
 Reference value :  3.75022e-06
 Reference value :  3.75032e-06
 Reference value :  3.75063e-06
 Reference value :  3.75136e-06
 Reference value :  3.75177e-06
 Reference value :  3.75280e-06
 Reference value :  3.75350e-06
 Reference value :  3.75399e-06
 Reference value :  3.75517e-06
 Reference value :  3.75593e-06
 Reference value :  3.75752e-06
 Reference value :  3.75964e-06
 Reference value :  3.76354e-06
 Reference value :  3.77236e-06
 Reference value :  3.79378e-06
 Reference value :  3.84786e-06
 Reference value :  4.00000e-06
 Reference value :  4.00003e-06
 Reference value :  4.00010e-06
 Reference value :  4.00012e-06
 Reference value :  4.00022e-06
 Reference value :  4.00053e-06
 Reference value :  4.00121e-06
 Reference value :  4.00163e-06
 Reference value :  4.00259e-06
 Reference value :  4.00309e-06
 Reference value :  4.00422e-06
 Reference value :  4.00523e-06
 Reference value :  4.00646e-06
 Reference value :  4.00820e-06
 Reference value :  4.00927e-06
 Reference value :  4.01023e-06
 Reference value :  4.01240e-06
 Reference value :  4.01471e-06
 Reference value :  4.01589e-06
 Reference value :  4.01691e-06
 Reference value :  4.01924e-06
 Reference value :  4.02266e-06
 Reference value :  4.03037e-06
 Reference value :  4.04631e-06
 Reference value :  4.05979e-06
 Reference value :  4.06322e-06
 Reference value :  4.06638e-06
 Reference value :  4.07486e-06
 Reference value :  4.08549e-06
 Reference value :  4.10433e-06
 Reference value :  4.14242e-06
 Reference value :  4.22585e-06
 Reference value :  4.25011e-06
 Reference value :  4.25017e-06
 Reference value :  4.25021e-06
 Reference value :  4.25026e-06
 Reference value :  4.25042e-06
 Reference value :  4.25082e-06
 Reference value :  4.25151e-06
 Reference value :  4.25240e-06
 Reference value :  4.25375e-06
 Reference value :  4.25426e-06
 Reference value :  4.25486e-06
 Reference value :  4.25615e-06
 Reference value :  4.25838e-06
 Reference value :  4.26342e-06
 Reference value :  4.27699e-06
 Reference value :  4.32430e-06
 Reference value :  4.50000e-06
 Reference value :  4.50003e-06
 Reference value :  4.50010e-06
 Reference value :  4.50012e-06
 Reference value :  4.50022e-06
 Reference value :  4.50057e-06
 Reference value :  4.50096e-06
 Reference value :  4.50185e-06
 Reference value :  4.50294e-06
 Reference value :  4.50348e-06
 Reference value :  4.50407e-06
 Reference value :  4.50548e-06
 Reference value :  4.50606e-06
 Reference value :  4.50769e-06
 Reference value :  4.50858e-06
 Reference value :  4.51058e-06
 Reference value :  4.51192e-06
 Reference value :  4.51960e-06
 Reference value :  4.53652e-06
 Reference value :  4.59215e-06
 Reference value :  4.75010e-06
 Reference value :  4.75013e-06
 Reference value :  4.75020e-06
 Reference value :  4.75022e-06
 Reference value :  4.75032e-06
 Reference value :  4.75061e-06
 Reference value :  4.75111e-06
 Reference value :  4.75151e-06
 Reference value :  4.75240e-06
 Reference value :  4.75374e-06
 Reference value :  4.75426e-06
 Reference value :  4.75544e-06
 Reference value :  4.75618e-06
 Reference value :  4.75846e-06
 Reference value :  4.76355e-06
 Reference value :  4.77711e-06
 Reference value :  4.82366e-06
 Reference value :  4.99738e-06
 Reference value :  5.00001e-06
 Reference value :  5.00007e-06
 Reference value :  5.00011e-06
 Reference value :  5.00016e-06
 Reference value :  5.00034e-06
 Reference value :  5.00096e-06
 Reference value :  5.00185e-06
 Reference value :  5.00242e-06
 Reference value :  5.00348e-06
 Reference value :  5.00468e-06
 Reference value :  5.00519e-06
 Reference value :  5.00576e-06
 Reference value :  5.00651e-06
 Reference value :  5.00879e-06
 Reference value :  5.01069e-06
 Reference value :  5.01216e-06
 Reference value :  5.01375e-06
 Reference value :  5.01499e-06
 Reference value :  5.01629e-06
 Reference value :  5.01743e-06
 Reference value :  5.01997e-06
 Reference value :  5.02182e-06
 Reference value :  5.02740e-06
 Reference value :  5.03541e-06
 Reference value :  5.04030e-06
 Reference value :  5.04672e-06
 Reference value :  5.05133e-06
 Reference value :  5.06302e-06
 Reference value :  5.07720e-06
 Reference value :  5.09334e-06
 Reference value :  5.12883e-06
 Reference value :  5.22831e-06
 Reference value :  5.25011e-06
 Reference value :  5.25017e-06
 Reference value :  5.25021e-06
 Reference value :  5.25026e-06
 Reference value :  5.25032e-06
 Reference value :  5.25061e-06
 Reference value :  5.25110e-06
 Reference value :  5.25152e-06
 Reference value :  5.25196e-06
 Reference value :  5.25309e-06
 Reference value :  5.25427e-06
 Reference value :  5.25543e-06
 Reference value :  5.25623e-06
 Reference value :  5.25867e-06
 Reference value :  5.26389e-06
 Reference value :  5.27858e-06
 Reference value :  5.33044e-06
 Reference value :  5.50000e-06
 Reference value :  5.50001e-06
 Reference value :  5.50003e-06
 Reference value :  5.50010e-06
 Reference value :  5.50012e-06
 Reference value :  5.50022e-06
 Reference value :  5.50057e-06
 Reference value :  5.50096e-06
 Reference value :  5.50138e-06
 Reference value :  5.50185e-06
 Reference value :  5.50241e-06
 Reference value :  5.50347e-06
 Reference value :  5.50407e-06
 Reference value :  5.50469e-06
 Reference value :  5.50603e-06
 Reference value :  5.50772e-06
 Reference value :  5.50860e-06
 Reference value :  5.50966e-06
 Reference value :  5.51203e-06
 Reference value :  5.51615e-06
 Reference value :  5.52002e-06
 Reference value :  5.53777e-06
 Reference value :  5.59919e-06
 Reference value :  5.75010e-06
 Reference value :  5.75011e-06
 Reference value :  5.75013e-06
 Reference value :  5.75017e-06
 Reference value :  5.75021e-06
 Reference value :  5.75026e-06
 Reference value :  5.75042e-06
 Reference value :  5.75061e-06
 Reference value :  5.75082e-06
 Reference value :  5.75111e-06
 Reference value :  5.75151e-06
 Reference value :  5.75240e-06
 Reference value :  5.75306e-06
 Reference value :  5.75373e-06
 Reference value :  5.75425e-06
 Reference value :  5.75485e-06
 Reference value :  5.75616e-06
 Reference value :  5.75768e-06
 Reference value :  5.75863e-06
 Reference value :  5.76141e-06
 Reference value :  5.76637e-06
 Reference value :  5.77753e-06
 Reference value :  5.80403e-06
 Reference value :  5.82903e-06
 Reference value :  5.86747e-06
 Reference value :  5.92694e-06
 Reference value :  6.00001e-06
 Reference value :  6.00007e-06
 Reference value :  6.00010e-06
 Reference value :  6.00012e-06
 Reference value :  6.00016e-06
 Reference value :  6.00034e-06
 Reference value :  6.00096e-06
 Reference value :  6.00185e-06
 Reference value :  6.00241e-06
 Reference value :  6.00294e-06
 Reference value :  6.00349e-06
 Reference value :  6.00408e-06
 Reference value :  6.00474e-06
 Reference value :  6.00530e-06
 Reference value :  6.00588e-06
 Reference value :  6.00662e-06
 Reference value :  6.00739e-06
 Reference value :  6.00849e-06
 Reference value :  6.00954e-06
 Reference value :  6.01062e-06
 Reference value :  6.01172e-06
 Reference value :  6.01285e-06
 Reference value :  6.01370e-06
 Reference value :  6.01549e-06
 Reference value :  6.01650e-06
 Reference value :  6.01743e-06
 Reference value :  6.01844e-06
 Reference value :  6.01953e-06
 Reference value :  6.02333e-06
 Reference value :  6.02676e-06
 Reference value :  6.03377e-06
 Reference value :  6.03795e-06
 Reference value :  6.04232e-06
 Reference value :  6.04521e-06
 Reference value :  6.05221e-06
 Reference value :  6.06103e-06
 Reference value :  6.09790e-06
 Reference value :  6.22685e-06
 Reference value :  6.25011e-06
 Reference value :  6.25017e-06
 Reference value :  6.25021e-06
 Reference value :  6.25026e-06
 Reference value :  6.25032e-06
 Reference value :  6.25061e-06
 Reference value :  6.25110e-06
 Reference value :  6.25152e-06
 Reference value :  6.25242e-06
 Reference value :  6.25377e-06
 Reference value :  6.25430e-06
 Reference value :  6.25547e-06
 Reference value :  6.25622e-06
 Reference value :  6.25853e-06
 Reference value :  6.26369e-06
 Reference value :  6.27813e-06
 Reference value :  6.33016e-06
 Reference value :  6.50000e-06
 Reference value :  6.50001e-06
 Reference value :  6.50007e-06
 Reference value :  6.50011e-06
 Reference value :  6.50016e-06
 Reference value :  6.50022e-06
 Reference value :  6.50034e-06
 Reference value :  6.50057e-06
 Reference value :  6.50096e-06
 Reference value :  6.50138e-06
 Reference value :  6.50242e-06
 Reference value :  6.50294e-06
 Reference value :  6.50348e-06
 Reference value :  6.50473e-06
 Reference value :  6.50548e-06
 Reference value :  6.50606e-06
 Reference value :  6.50679e-06
 Reference value :  6.50769e-06
 Reference value :  6.50858e-06
 Reference value :  6.50961e-06
 Reference value :  6.51057e-06
 Reference value :  6.51190e-06
 Reference value :  6.51583e-06
 Reference value :  6.52559e-06
 Reference value :  6.55408e-06
 Reference value :  6.66185e-06
 Reference value :  6.75011e-06
 Reference value :  6.75017e-06
 Reference value :  6.75021e-06
 Reference value :  6.75026e-06
 Reference value :  6.75032e-06
 Reference value :  6.75061e-06
 Reference value :  6.75111e-06
 Reference value :  6.75151e-06
 Reference value :  6.75195e-06
 Reference value :  6.75240e-06
 Reference value :  6.75306e-06
 Reference value :  6.75374e-06
 Reference value :  6.75426e-06
 Reference value :  6.75486e-06
 Reference value :  6.75617e-06
 Reference value :  6.75693e-06
 Reference value :  6.76065e-06
 Reference value :  6.76802e-06
 Reference value :  6.79319e-06
 Reference value :  6.82299e-06
 Reference value :  6.99222e-06
 Reference value :  7.00000e-06
 Reference value :  7.00001e-06
 Reference value :  7.00007e-06
 Reference value :  7.00010e-06
 Reference value :  7.00012e-06
 Reference value :  7.00016e-06
 Reference value :  7.00022e-06
 Reference value :  7.00057e-06
 Reference value :  7.00096e-06
 Reference value :  7.00138e-06
 Reference value :  7.00241e-06
 Reference value :  7.00348e-06
 Reference value :  7.00407e-06
 Reference value :  7.00519e-06
 Reference value :  7.00651e-06
 Reference value :  7.00879e-06
 Reference value :  7.01069e-06
 Reference value :  7.01216e-06
 Reference value :  7.01375e-06
 Reference value :  7.01501e-06
 Reference value :  7.01633e-06
 Reference value :  7.01764e-06
 Reference value :  7.01883e-06
 Reference value :  7.02236e-06
 Reference value :  7.02862e-06
 Reference value :  7.03260e-06
 Reference value :  7.03735e-06
 Reference value :  7.04116e-06
 Reference value :  7.04513e-06
 Reference value :  7.05769e-06
 Reference value :  7.07437e-06
 Reference value :  7.09615e-06
 Reference value :  7.11613e-06
 Reference value :  7.14829e-06
 Reference value :  7.20668e-06
 Reference value :  7.25010e-06
 Reference value :  7.25011e-06
 Reference value :  7.25013e-06
 Reference value :  7.25017e-06
 Reference value :  7.25020e-06
 Reference value :  7.25021e-06
 Reference value :  7.25022e-06
 Reference value :  7.25026e-06
 Reference value :  7.25032e-06
 Reference value :  7.25042e-06
 Reference value :  7.25079e-06
 Reference value :  7.25110e-06
 Reference value :  7.25152e-06
 Reference value :  7.25196e-06
 Reference value :  7.25242e-06
 Reference value :  7.25309e-06
 Reference value :  7.25373e-06
 Reference value :  7.25427e-06
 Reference value :  7.25487e-06
 Reference value :  7.25543e-06
 Reference value :  7.25623e-06
 Reference value :  7.25708e-06
 Reference value :  7.26091e-06
 Reference value :  7.26879e-06
 Reference value :  7.29643e-06
 Reference value :  7.39717e-06
 Reference value :  7.50000e-06
 Reference value :  7.50001e-06
 Reference value :  7.50003e-06
 Reference value :  7.50007e-06
 Reference value :  7.50010e-06
 Reference value :  7.50011e-06
 Reference value :  7.50016e-06
 Reference value :  7.50034e-06
 Reference value :  7.50096e-06
 Reference value :  7.50185e-06
 Reference value :  7.50241e-06
 Reference value :  7.50294e-06
 Reference value :  7.50347e-06
 Reference value :  7.50407e-06
 Reference value :  7.50469e-06
 Reference value :  7.50545e-06
 Reference value :  7.50604e-06
 Reference value :  7.50678e-06
 Reference value :  7.50772e-06
 Reference value :  7.50860e-06
 Reference value :  7.50966e-06
 Reference value :  7.51062e-06
 Reference value :  7.51202e-06
 Reference value :  7.51611e-06
 Reference value :  7.52637e-06
 Reference value :  7.55765e-06
 Reference value :  7.67584e-06
 Reference value :  7.75011e-06
 Reference value :  7.75013e-06
 Reference value :  7.75020e-06
 Reference value :  7.75022e-06
 Reference value :  7.75032e-06
 Reference value :  7.75042e-06
 Reference value :  7.75061e-06
 Reference value :  7.75111e-06
 Reference value :  7.75151e-06
 Reference value :  7.75195e-06
 Reference value :  7.75240e-06
 Reference value :  7.75306e-06
 Reference value :  7.75373e-06
 Reference value :  7.75425e-06
 Reference value :  7.75543e-06
 Reference value :  7.75616e-06
 Reference value :  7.75768e-06
 Reference value :  7.75862e-06
 Reference value :  7.76138e-06
 Reference value :  7.76320e-06
 Reference value :  7.76632e-06
 Reference value :  7.77739e-06
 Reference value :  7.80358e-06
 Reference value :  7.86613e-06
 Reference value :  8.00000e-06
 Reference value :  8.00001e-06
 Reference value :  8.00003e-06
 Reference value :  8.00010e-06
 Reference value :  8.00012e-06
 Reference value :  8.00022e-06
 Reference value :  8.00057e-06
 Reference value :  8.00138e-06
 Reference value :  8.00185e-06
 Reference value :  8.00241e-06
 Reference value :  8.00294e-06
 Reference value :  8.00350e-06
 Reference value :  8.00475e-06
 Reference value :  8.00530e-06
 Reference value :  8.00589e-06
 Reference value :  8.00739e-06
 Reference value :  8.00820e-06
 Reference value :  8.00905e-06
 Reference value :  8.00974e-06
 Reference value :  8.01141e-06
 Reference value :  8.01492e-06
 Reference value :  8.02126e-06
 Reference value :  8.03076e-06
 Reference value :  8.03880e-06
 Reference value :  8.06447e-06
 Reference value :  8.07378e-06
 Reference value :  8.08255e-06
 Reference value :  8.09567e-06
 Reference value :  8.11189e-06
 Reference value :  8.13041e-06
 Reference value :  8.18128e-06
 Reference value :  8.25010e-06
 Reference value :  8.25011e-06
 Reference value :  8.25013e-06
 Reference value :  8.25017e-06
 Reference value :  8.25020e-06
 Reference value :  8.25022e-06
 Reference value :  8.25026e-06
 Reference value :  8.25032e-06
 Reference value :  8.25045e-06
 Reference value :  8.25063e-06
 Reference value :  8.25083e-06
 Reference value :  8.25122e-06
 Reference value :  8.25160e-06
 Reference value :  8.25204e-06
 Reference value :  8.25251e-06
 Reference value :  8.25324e-06
 Reference value :  8.25395e-06
 Reference value :  8.25485e-06
 Reference value :  8.25580e-06
 Reference value :  8.25846e-06
 Reference value :  8.26322e-06
 Reference value :  8.26704e-06
 Reference value :  8.27468e-06
 Reference value :  8.32053e-06
 Reference value :  8.38166e-06
 Reference value :  8.50000e-06
No. of Data Rows : 1289
ngspice-44 done
