
Note: Compatibility modes selected: hs a


Circuit: ** sch_path: /home/audrey/cace/sar-adc-using-sky130-pdk/runs/run_2025-08-29_21-01-35/parameters/power/run_0/power_consumption.sch

option SCALE: Scale is set to 1e-06 for instance and model parameters
option SCALE: Scale is set to 1e-06 for instance and model parameters
option SCALE: Scale is set to 1e-06 for instance and model parameters
option SCALE: Scale is set to 1e-06 for instance and model parameters
Doing analysis at TEMP = 27.000000 and TNOM = 27.000000

Using KLU as Direct Linear Solver
Operating point simulation skipped by 'uic',
  now using transient initial conditions.
 Reference value :  5.00000e-12
 Reference value :  5.13408e-12
 Reference value :  5.40223e-12
 Reference value :  5.93854e-12
 Reference value :  7.01116e-12
 Reference value :  8.89523e-12
 Reference value :  1.19719e-11
 Reference value :  1.74901e-11
 Reference value :  2.81769e-11
 Reference value :  4.16434e-11
 Reference value :  6.59290e-11
 Reference value :  9.52376e-11
 Reference value :  1.47584e-10
 Reference value :  2.09384e-10
 Reference value :  3.30032e-10
 Reference value :  4.66215e-10
 Reference value :  5.00000e-10
 Reference value :  5.04197e-10
 Reference value :  5.12592e-10
 Reference value :  5.29382e-10
 Reference value :  5.62961e-10
 Reference value :  6.30119e-10
 Reference value :  7.64436e-10
 Reference value :  1.03307e-09
 Reference value :  1.57034e-09
 Reference value :  2.64487e-09
 Reference value :  3.77143e-09
 Reference value :  6.02456e-09
 Reference value :  9.68996e-09
 Reference value :  1.40641e-08
 Reference value :  2.28125e-08
 Reference value :  3.35079e-08
 Reference value :  4.98179e-08
 Reference value :  7.18989e-08
 Reference value :  1.16061e-07
 Reference value :  2.04385e-07
 Reference value :  3.81033e-07
 Reference value :  5.00000e-07
 Reference value :  5.35330e-07
 Reference value :  6.05989e-07
 Reference value :  7.47307e-07
 Reference value :  1.00050e-06
 Reference value :  1.00055e-06
 Reference value :  1.00065e-06
 Reference value :  1.00085e-06
 Reference value :  1.00100e-06
 Reference value :  1.00103e-06
 Reference value :  1.00110e-06
 Reference value :  1.00124e-06
 Reference value :  1.00151e-06
 Reference value :  1.00198e-06
 Reference value :  1.00253e-06
 Reference value :  1.00338e-06
 Reference value :  1.00465e-06
 Reference value :  1.00674e-06
 Reference value :  1.01059e-06
 Reference value :  1.01592e-06
 Reference value :  1.02191e-06
 Reference value :  1.02904e-06
 Reference value :  1.03584e-06
 Reference value :  1.04466e-06
 Reference value :  1.05272e-06
 Reference value :  1.06236e-06
 Reference value :  1.07111e-06
 Reference value :  1.07846e-06
 Reference value :  1.08507e-06
 Reference value :  1.09104e-06
 Reference value :  1.09612e-06
 Reference value :  1.10146e-06
 Reference value :  1.10647e-06
 Reference value :  1.11196e-06
 Reference value :  1.11673e-06
 Reference value :  1.12170e-06
 Reference value :  1.12654e-06
 Reference value :  1.13159e-06
 Reference value :  1.13624e-06
 Reference value :  1.14289e-06
 Reference value :  1.14900e-06
 Reference value :  1.15583e-06
 Reference value :  1.16075e-06
 Reference value :  1.16615e-06
 Reference value :  1.17126e-06
 Reference value :  1.17945e-06
 Reference value :  1.18733e-06
 Reference value :  1.19918e-06
 Reference value :  1.21418e-06
 Reference value :  1.21669e-06
 Reference value :  1.22171e-06
 Reference value :  1.23175e-06
 Reference value :  1.24132e-06
 Reference value :  1.25126e-06
 Reference value :  1.26168e-06
 Reference value :  1.27363e-06
 Reference value :  1.28519e-06
 Reference value :  1.30006e-06
 Reference value :  1.31506e-06
 Reference value :  1.33167e-06
 Reference value :  1.36249e-06
 Reference value :  1.40060e-06
 Reference value :  1.44842e-06
 Reference value :  1.48378e-06
 Reference value :  1.52190e-06
 Reference value :  1.56354e-06
 Reference value :  1.59209e-06
 Reference value :  1.61905e-06
 Reference value :  1.64612e-06
 Reference value :  1.67506e-06
 Reference value :  1.71299e-06
 Reference value :  1.75435e-06
 Reference value :  1.78265e-06
 Reference value :  1.80569e-06
 Reference value :  1.82137e-06
 Reference value :  1.83772e-06
 Reference value :  1.85345e-06
 Reference value :  1.87081e-06
 Reference value :  1.89647e-06
 Reference value :  1.92501e-06
 Reference value :  1.96667e-06
 Reference value :  2.00000e-06
 Reference value :  2.00005e-06
 Reference value :  2.00015e-06
 Reference value :  2.00035e-06
 Reference value :  2.00050e-06
 Reference value :  2.00051e-06
 Reference value :  2.00053e-06
 Reference value :  2.00058e-06
 Reference value :  2.00066e-06
 Reference value :  2.00084e-06
 Reference value :  2.00118e-06
 Reference value :  2.00188e-06
 Reference value :  2.00327e-06
 Reference value :  2.00517e-06
 Reference value :  2.00765e-06
 Reference value :  2.01179e-06
 Reference value :  2.01649e-06
 Reference value :  2.02185e-06
 Reference value :  2.03192e-06
 Reference value :  2.04693e-06
 Reference value :  2.07571e-06
 Reference value :  2.13089e-06
 Reference value :  2.23383e-06
 Reference value :  2.37095e-06
 Reference value :  2.39068e-06
 Reference value :  2.43013e-06
 Reference value :  2.50904e-06
 Reference value :  2.61417e-06
 Reference value :  2.70737e-06
 Reference value :  2.77711e-06
 Reference value :  2.84313e-06
 Reference value :  2.91428e-06
 Reference value :  3.00050e-06
 Reference value :  3.00055e-06
 Reference value :  3.00065e-06
 Reference value :  3.00085e-06
 Reference value :  3.00100e-06
 Reference value :  3.00103e-06
 Reference value :  3.00109e-06
 Reference value :  3.00120e-06
 Reference value :  3.00143e-06
 Reference value :  3.00173e-06
 Reference value :  3.00210e-06
 Reference value :  3.00265e-06
 Reference value :  3.00376e-06
 Reference value :  3.00599e-06
 Reference value :  3.01043e-06
 Reference value :  3.01932e-06
 Reference value :  3.03710e-06
 Reference value :  3.06658e-06
 Reference value :  3.10225e-06
 Reference value :  3.15548e-06
 Reference value :  3.19922e-06
 Reference value :  3.23349e-06
 Reference value :  3.26621e-06
 Reference value :  3.29877e-06
 Reference value :  3.33042e-06
 Reference value :  3.36163e-06
 Reference value :  3.39626e-06
 Reference value :  3.43419e-06
 Reference value :  3.47916e-06
 Reference value :  3.53412e-06
 Reference value :  3.60315e-06
 Reference value :  3.69340e-06
 Reference value :  3.81271e-06
 Reference value :  3.94496e-06
 Reference value :  4.00000e-06
 Reference value :  4.00005e-06
 Reference value :  4.00015e-06
 Reference value :  4.00035e-06
 Reference value :  4.00050e-06
 Reference value :  4.00051e-06
 Reference value :  4.00054e-06
 Reference value :  4.00059e-06
 Reference value :  4.00070e-06
 Reference value :  4.00090e-06
 Reference value :  4.00132e-06
 Reference value :  4.00216e-06
 Reference value :  4.00383e-06
 Reference value :  4.00716e-06
 Reference value :  4.01174e-06
 Reference value :  4.01704e-06
 Reference value :  4.02762e-06
 Reference value :  4.03983e-06
 Reference value :  4.05677e-06
 Reference value :  4.07545e-06
 Reference value :  4.11281e-06
 Reference value :  4.16096e-06
 Reference value :  4.20485e-06
 Reference value :  4.29262e-06
 Reference value :  4.46816e-06
 Reference value :  4.47358e-06
 Reference value :  4.48442e-06
 Reference value :  4.50611e-06
 Reference value :  4.54947e-06
 Reference value :  4.59779e-06
 Reference value :  4.64591e-06
 Reference value :  4.69139e-06
 Reference value :  4.73323e-06
 Reference value :  4.77540e-06
 Reference value :  4.84887e-06
 Reference value :  4.92280e-06
 Reference value :  5.00050e-06
 Reference value :  5.00055e-06
 Reference value :  5.00065e-06
 Reference value :  5.00085e-06
 Reference value :  5.00100e-06
 Reference value :  5.00103e-06
 Reference value :  5.00109e-06
 Reference value :  5.00121e-06
 Reference value :  5.00146e-06
 Reference value :  5.00176e-06
 Reference value :  5.00214e-06
 Reference value :  5.00272e-06
 Reference value :  5.00386e-06
 Reference value :  5.00615e-06
 Reference value :  5.01074e-06
 Reference value :  5.01991e-06
 Reference value :  5.03825e-06
 Reference value :  5.07157e-06
 Reference value :  5.11159e-06
 Reference value :  5.17443e-06
 Reference value :  5.26142e-06
 Reference value :  5.40934e-06
 Reference value :  5.61796e-06
 Reference value :  5.90329e-06
 Reference value :  6.00000e-06
 Reference value :  6.00005e-06
 Reference value :  6.00015e-06
 Reference value :  6.00035e-06
 Reference value :  6.00050e-06
 Reference value :  6.00051e-06
 Reference value :  6.00054e-06
 Reference value :  6.00059e-06
 Reference value :  6.00069e-06
 Reference value :  6.00089e-06
 Reference value :  6.00129e-06
 Reference value :  6.00209e-06
 Reference value :  6.00368e-06
 Reference value :  6.00688e-06
 Reference value :  6.01059e-06
 Reference value :  6.01590e-06
 Reference value :  6.02654e-06
 Reference value :  6.03675e-06
 Reference value :  6.05485e-06
 Reference value :  6.07135e-06
 Reference value :  6.10434e-06
 Reference value :  6.17033e-06
 Reference value :  6.27323e-06
 Reference value :  6.47587e-06
 Reference value :  6.75634e-06
 Reference value :  7.00050e-06
 Reference value :  7.00055e-06
 Reference value :  7.00065e-06
 Reference value :  7.00085e-06
 Reference value :  7.00100e-06
 Reference value :  7.00103e-06
 Reference value :  7.00109e-06
 Reference value :  7.00121e-06
 Reference value :  7.00144e-06
 Reference value :  7.00174e-06
 Reference value :  7.00211e-06
 Reference value :  7.00268e-06
 Reference value :  7.00380e-06
 Reference value :  7.00605e-06
 Reference value :  7.01056e-06
 Reference value :  7.01956e-06
 Reference value :  7.03758e-06
 Reference value :  7.06841e-06
 Reference value :  7.10641e-06
 Reference value :  7.16436e-06
 Reference value :  7.24632e-06
 Reference value :  7.38016e-06
 Reference value :  7.56963e-06
 Reference value :  7.83527e-06
 Reference value :  8.00000e-06
 Reference value :  8.00005e-06
 Reference value :  8.00015e-06
 Reference value :  8.00035e-06
 Reference value :  8.00050e-06
 Reference value :  8.00051e-06
 Reference value :  8.00054e-06
 Reference value :  8.00058e-06
 Reference value :  8.00068e-06
 Reference value :  8.00087e-06
 Reference value :  8.00125e-06
 Reference value :  8.00201e-06
 Reference value :  8.00352e-06
 Reference value :  8.00656e-06
 Reference value :  8.01025e-06
 Reference value :  8.01527e-06
 Reference value :  8.02532e-06
 Reference value :  8.03528e-06
 Reference value :  8.05083e-06
 Reference value :  8.06703e-06
 Reference value :  8.09942e-06
 Reference value :  8.16420e-06
 Reference value :  8.28493e-06
 Reference value :  8.46302e-06
 Reference value :  8.76603e-06
 Reference value :  9.00050e-06
 Reference value :  9.00055e-06
 Reference value :  9.00065e-06
 Reference value :  9.00085e-06
 Reference value :  9.00100e-06
 Reference value :  9.00103e-06
 Reference value :  9.00109e-06
 Reference value :  9.00120e-06
 Reference value :  9.00143e-06
 Reference value :  9.00172e-06
 Reference value :  9.00210e-06
 Reference value :  9.00265e-06
 Reference value :  9.00376e-06
 Reference value :  9.00598e-06
 Reference value :  9.01043e-06
 Reference value :  9.01931e-06
 Reference value :  9.03708e-06
 Reference value :  9.06629e-06
 Reference value :  9.10296e-06
 Reference value :  9.15773e-06
 Reference value :  9.23615e-06
 Reference value :  9.36060e-06
 Reference value :  9.52572e-06
 Reference value :  9.78573e-06
 Reference value :  1.00000e-05
 Reference value :  1.00000e-05
 Reference value :  1.00001e-05
 Reference value :  1.00003e-05
 Reference value :  1.00005e-05
 Reference value :  1.00005e-05
 Reference value :  1.00005e-05
 Reference value :  1.00006e-05
 Reference value :  1.00007e-05
 Reference value :  1.00009e-05
 Reference value :  1.00012e-05
 Reference value :  1.00020e-05
 Reference value :  1.00035e-05
 Reference value :  1.00064e-05
 Reference value :  1.00101e-05
 Reference value :  1.00150e-05
 Reference value :  1.00248e-05
 Reference value :  1.00347e-05
 Reference value :  1.00499e-05
 Reference value :  1.00658e-05
 Reference value :  1.00978e-05
 Reference value :  1.01616e-05
 Reference value :  1.02855e-05
 Reference value :  1.04576e-05
 Reference value :  1.07639e-05
 Reference value :  1.10005e-05
 Reference value :  1.10005e-05
 Reference value :  1.10006e-05
 Reference value :  1.10008e-05
 Reference value :  1.10010e-05
 Reference value :  1.10010e-05
 Reference value :  1.10011e-05
 Reference value :  1.10012e-05
 Reference value :  1.10014e-05
 Reference value :  1.10017e-05
 Reference value :  1.10021e-05
 Reference value :  1.10026e-05
 Reference value :  1.10038e-05
 Reference value :  1.10060e-05
 Reference value :  1.10104e-05
 Reference value :  1.10192e-05
 Reference value :  1.10369e-05
 Reference value :  1.10656e-05
 Reference value :  1.11019e-05
 Reference value :  1.11556e-05
 Reference value :  1.12329e-05
 Reference value :  1.13545e-05
 Reference value :  1.15137e-05
 Reference value :  1.17711e-05
 Reference value :  1.20000e-05
 Reference value :  1.20000e-05
 Reference value :  1.20001e-05
 Reference value :  1.20003e-05
 Reference value :  1.20005e-05
 Reference value :  1.20005e-05
 Reference value :  1.20005e-05
 Reference value :  1.20006e-05
 Reference value :  1.20007e-05
 Reference value :  1.20009e-05
 Reference value :  1.20012e-05
 Reference value :  1.20020e-05
 Reference value :  1.20034e-05
 Reference value :  1.20064e-05
 Reference value :  1.20101e-05
 Reference value :  1.20150e-05
 Reference value :  1.20247e-05
 Reference value :  1.20346e-05
 Reference value :  1.20496e-05
 Reference value :  1.20655e-05
 Reference value :  1.20973e-05
 Reference value :  1.21609e-05
 Reference value :  1.22846e-05
 Reference value :  1.24555e-05
 Reference value :  1.27613e-05
 Reference value :  1.30005e-05
 Reference value :  1.30006e-05
 Reference value :  1.30007e-05
 Reference value :  1.30009e-05
 Reference value :  1.30010e-05
 Reference value :  1.30010e-05
 Reference value :  1.30011e-05
 Reference value :  1.30012e-05
 Reference value :  1.30014e-05
 Reference value :  1.30017e-05
 Reference value :  1.30021e-05
 Reference value :  1.30026e-05
 Reference value :  1.30037e-05
 Reference value :  1.30060e-05
 Reference value :  1.30104e-05
 Reference value :  1.30192e-05
 Reference value :  1.30369e-05
 Reference value :  1.30654e-05
 Reference value :  1.31016e-05
 Reference value :  1.31551e-05
 Reference value :  1.32321e-05
 Reference value :  1.33529e-05
 Reference value :  1.35105e-05
 Reference value :  1.37673e-05
 Reference value :  1.40000e-05
 Reference value :  1.40000e-05
 Reference value :  1.40002e-05
 Reference value :  1.40004e-05
 Reference value :  1.40005e-05
 Reference value :  1.40005e-05
 Reference value :  1.40005e-05
 Reference value :  1.40006e-05
 Reference value :  1.40007e-05
 Reference value :  1.40009e-05
 Reference value :  1.40012e-05
 Reference value :  1.40020e-05
 Reference value :  1.40034e-05
 Reference value :  1.40064e-05
 Reference value :  1.40101e-05
 Reference value :  1.40149e-05
 Reference value :  1.40246e-05
 Reference value :  1.40345e-05
 Reference value :  1.40495e-05
 Reference value :  1.40654e-05
 Reference value :  1.40972e-05
 Reference value :  1.41607e-05
 Reference value :  1.42843e-05
 Reference value :  1.44550e-05
 Reference value :  1.47606e-05
 Reference value :  1.50005e-05
 Reference value :  1.50005e-05
 Reference value :  1.50007e-05
 Reference value :  1.50009e-05
 Reference value :  1.50010e-05
 Reference value :  1.50010e-05
 Reference value :  1.50011e-05
 Reference value :  1.50012e-05
 Reference value :  1.50014e-05
 Reference value :  1.50017e-05
 Reference value :  1.50021e-05
 Reference value :  1.50026e-05
 Reference value :  1.50037e-05
 Reference value :  1.50060e-05
 Reference value :  1.50104e-05
 Reference value :  1.50192e-05
 Reference value :  1.50369e-05
 Reference value :  1.50654e-05
 Reference value :  1.51015e-05
 Reference value :  1.51549e-05
 Reference value :  1.52319e-05
 Reference value :  1.53525e-05
 Reference value :  1.55097e-05
 Reference value :  1.57663e-05
 Reference value :  1.60000e-05
 Reference value :  1.60000e-05
 Reference value :  1.60001e-05
 Reference value :  1.60004e-05
 Reference value :  1.60005e-05
 Reference value :  1.60005e-05
 Reference value :  1.60005e-05
 Reference value :  1.60006e-05
 Reference value :  1.60007e-05
 Reference value :  1.60009e-05
 Reference value :  1.60012e-05
 Reference value :  1.60020e-05
 Reference value :  1.60034e-05
 Reference value :  1.60064e-05
 Reference value :  1.60101e-05
 Reference value :  1.60149e-05
 Reference value :  1.60246e-05
 Reference value :  1.60345e-05
 Reference value :  1.60495e-05
 Reference value :  1.60654e-05
 Reference value :  1.60971e-05
 Reference value :  1.61606e-05
 Reference value :  1.62843e-05
 Reference value :  1.64548e-05
 Reference value :  1.67604e-05
 Reference value :  1.70005e-05
 Reference value :  1.70006e-05
 Reference value :  1.70007e-05
 Reference value :  1.70009e-05
 Reference value :  1.70010e-05
 Reference value :  1.70010e-05
 Reference value :  1.70011e-05
 Reference value :  1.70012e-05
 Reference value :  1.70014e-05
 Reference value :  1.70017e-05
 Reference value :  1.70021e-05
 Reference value :  1.70026e-05
 Reference value :  1.70037e-05
 Reference value :  1.70060e-05
 Reference value :  1.70104e-05
 Reference value :  1.70192e-05
 Reference value :  1.70369e-05
 Reference value :  1.70654e-05
 Reference value :  1.71015e-05
 Reference value :  1.71549e-05
 Reference value :  1.72318e-05
 Reference value :  1.73524e-05
 Reference value :  1.75095e-05
 Reference value :  1.77660e-05
 Reference value :  1.80000e-05
 Reference value :  1.80001e-05
 Reference value :  1.80002e-05
 Reference value :  1.80004e-05
 Reference value :  1.80005e-05
 Reference value :  1.80005e-05
 Reference value :  1.80005e-05
 Reference value :  1.80006e-05
 Reference value :  1.80007e-05
 Reference value :  1.80009e-05
 Reference value :  1.80012e-05
 Reference value :  1.80020e-05
 Reference value :  1.80034e-05
 Reference value :  1.80064e-05
 Reference value :  1.80101e-05
 Reference value :  1.80149e-05
 Reference value :  1.80246e-05
 Reference value :  1.80345e-05
 Reference value :  1.80495e-05
 Reference value :  1.80654e-05
 Reference value :  1.80971e-05
 Reference value :  1.81606e-05
 Reference value :  1.82842e-05
 Reference value :  1.84548e-05
 Reference value :  1.87603e-05
 Reference value :  1.90005e-05
 Reference value :  1.90006e-05
 Reference value :  1.90007e-05
 Reference value :  1.90009e-05
 Reference value :  1.90010e-05
 Reference value :  1.90010e-05
 Reference value :  1.90011e-05
 Reference value :  1.90012e-05
 Reference value :  1.90014e-05
 Reference value :  1.90017e-05
 Reference value :  1.90021e-05
 Reference value :  1.90026e-05
 Reference value :  1.90037e-05
 Reference value :  1.90060e-05
 Reference value :  1.90104e-05
 Reference value :  1.90192e-05
 Reference value :  1.90369e-05
 Reference value :  1.90654e-05
 Reference value :  1.91015e-05
 Reference value :  1.91549e-05
 Reference value :  1.92318e-05
 Reference value :  1.93523e-05
 Reference value :  1.95094e-05
 Reference value :  1.97659e-05
 Reference value :  2.00000e-05
 Reference value :  2.00001e-05
 Reference value :  2.00002e-05
 Reference value :  2.00004e-05
 Reference value :  2.00005e-05
 Reference value :  2.00005e-05
 Reference value :  2.00005e-05
 Reference value :  2.00006e-05
 Reference value :  2.00007e-05
 Reference value :  2.00009e-05
 Reference value :  2.00012e-05
 Reference value :  2.00020e-05
 Reference value :  2.00034e-05
 Reference value :  2.00064e-05
 Reference value :  2.00101e-05
 Reference value :  2.00149e-05
 Reference value :  2.00246e-05
 Reference value :  2.00345e-05
 Reference value :  2.00495e-05
 Reference value :  2.00654e-05
 Reference value :  2.00971e-05
 Reference value :  2.01606e-05
 Reference value :  2.02842e-05
 Reference value :  2.04548e-05
 Reference value :  2.07603e-05
 Reference value :  2.10005e-05
 Reference value :  2.10005e-05
 Reference value :  2.10006e-05
 Reference value :  2.10008e-05
 Reference value :  2.10010e-05
 Reference value :  2.10010e-05
 Reference value :  2.10011e-05
 Reference value :  2.10012e-05
 Reference value :  2.10014e-05
 Reference value :  2.10017e-05
 Reference value :  2.10021e-05
 Reference value :  2.10026e-05
 Reference value :  2.10037e-05
 Reference value :  2.10060e-05
 Reference value :  2.10104e-05
 Reference value :  2.10192e-05
 Reference value :  2.10369e-05
 Reference value :  2.10654e-05
 Reference value :  2.11015e-05
 Reference value :  2.11549e-05
 Reference value :  2.12318e-05
 Reference value :  2.13523e-05
 Reference value :  2.15094e-05
 Reference value :  2.17659e-05
 Reference value :  2.20000e-05
 Reference value :  2.20000e-05
 Reference value :  2.20001e-05
 Reference value :  2.20004e-05
 Reference value :  2.20005e-05
 Reference value :  2.20005e-05
 Reference value :  2.20005e-05
 Reference value :  2.20006e-05
 Reference value :  2.20007e-05
 Reference value :  2.20009e-05
 Reference value :  2.20012e-05
 Reference value :  2.20020e-05
 Reference value :  2.20034e-05
 Reference value :  2.20064e-05
 Reference value :  2.20101e-05
 Reference value :  2.20149e-05
 Reference value :  2.20246e-05
 Reference value :  2.20345e-05
 Reference value :  2.20495e-05
 Reference value :  2.20654e-05
 Reference value :  2.20971e-05
 Reference value :  2.21606e-05
 Reference value :  2.22842e-05
 Reference value :  2.24548e-05
 Reference value :  2.27603e-05
 Reference value :  2.30005e-05
 Reference value :  2.30005e-05
 Reference value :  2.30006e-05
 Reference value :  2.30008e-05
 Reference value :  2.30010e-05
 Reference value :  2.30010e-05
 Reference value :  2.30011e-05
 Reference value :  2.30012e-05
 Reference value :  2.30014e-05
 Reference value :  2.30017e-05
 Reference value :  2.30021e-05
 Reference value :  2.30026e-05
 Reference value :  2.30037e-05
 Reference value :  2.30060e-05
 Reference value :  2.30104e-05
 Reference value :  2.30192e-05
 Reference value :  2.30369e-05
 Reference value :  2.30654e-05
 Reference value :  2.31015e-05
 Reference value :  2.31549e-05
 Reference value :  2.32318e-05
 Reference value :  2.33523e-05
 Reference value :  2.35094e-05
 Reference value :  2.37658e-05
 Reference value :  2.40000e-05
 Reference value :  2.40001e-05
 Reference value :  2.40002e-05
 Reference value :  2.40004e-05
 Reference value :  2.40005e-05
 Reference value :  2.40005e-05
 Reference value :  2.40005e-05
 Reference value :  2.40006e-05
 Reference value :  2.40007e-05
 Reference value :  2.40009e-05
 Reference value :  2.40012e-05
 Reference value :  2.40020e-05
 Reference value :  2.40034e-05
 Reference value :  2.40064e-05
 Reference value :  2.40101e-05
 Reference value :  2.40149e-05
 Reference value :  2.40246e-05
 Reference value :  2.40345e-05
 Reference value :  2.40495e-05
 Reference value :  2.40654e-05
 Reference value :  2.40971e-05
 Reference value :  2.41606e-05
 Reference value :  2.42842e-05
 Reference value :  2.44547e-05
 Reference value :  2.47602e-05
 Reference value :  2.50005e-05
 Reference value :  2.50005e-05
 Reference value :  2.50006e-05
 Reference value :  2.50008e-05
 Reference value :  2.50010e-05
 Reference value :  2.50010e-05
 Reference value :  2.50011e-05
 Reference value :  2.50012e-05
 Reference value :  2.50014e-05
 Reference value :  2.50017e-05
 Reference value :  2.50021e-05
 Reference value :  2.50026e-05
 Reference value :  2.50037e-05
 Reference value :  2.50060e-05
 Reference value :  2.50104e-05
 Reference value :  2.50192e-05
 Reference value :  2.50369e-05
 Reference value :  2.50654e-05
 Reference value :  2.51015e-05
 Reference value :  2.51549e-05
 Reference value :  2.52318e-05
 Reference value :  2.53523e-05
 Reference value :  2.55094e-05
 Reference value :  2.57658e-05
 Reference value :  2.60000e-05
 Reference value :  2.60001e-05
 Reference value :  2.60002e-05
 Reference value :  2.60004e-05
 Reference value :  2.60005e-05
 Reference value :  2.60005e-05
 Reference value :  2.60005e-05
 Reference value :  2.60006e-05
 Reference value :  2.60007e-05
 Reference value :  2.60009e-05
 Reference value :  2.60012e-05
 Reference value :  2.60020e-05
 Reference value :  2.60034e-05
 Reference value :  2.60064e-05
 Reference value :  2.60101e-05
 Reference value :  2.60149e-05
 Reference value :  2.60246e-05
 Reference value :  2.60345e-05
 Reference value :  2.60495e-05
 Reference value :  2.60654e-05
 Reference value :  2.60971e-05
 Reference value :  2.61606e-05
 Reference value :  2.62842e-05
 Reference value :  2.64547e-05
 Reference value :  2.67602e-05
 Reference value :  2.70005e-05
 Reference value :  2.70006e-05
 Reference value :  2.70007e-05
 Reference value :  2.70009e-05
 Reference value :  2.70010e-05
 Reference value :  2.70010e-05
 Reference value :  2.70011e-05
 Reference value :  2.70012e-05
 Reference value :  2.70014e-05
 Reference value :  2.70017e-05
 Reference value :  2.70021e-05
 Reference value :  2.70026e-05
 Reference value :  2.70037e-05
 Reference value :  2.70060e-05
 Reference value :  2.70104e-05
 Reference value :  2.70192e-05
 Reference value :  2.70369e-05
 Reference value :  2.70654e-05
 Reference value :  2.71015e-05
 Reference value :  2.71549e-05
 Reference value :  2.72318e-05
 Reference value :  2.73523e-05
 Reference value :  2.75094e-05
 Reference value :  2.77658e-05
 Reference value :  2.80000e-05
 Reference value :  2.80000e-05
 Reference value :  2.80001e-05
 Reference value :  2.80004e-05
 Reference value :  2.80005e-05
 Reference value :  2.80005e-05
 Reference value :  2.80005e-05
 Reference value :  2.80006e-05
 Reference value :  2.80007e-05
 Reference value :  2.80009e-05
 Reference value :  2.80012e-05
 Reference value :  2.80020e-05
 Reference value :  2.80034e-05
 Reference value :  2.80064e-05
 Reference value :  2.80101e-05
 Reference value :  2.80149e-05
 Reference value :  2.80246e-05
 Reference value :  2.80345e-05
 Reference value :  2.80495e-05
 Reference value :  2.80654e-05
 Reference value :  2.80971e-05
 Reference value :  2.81606e-05
 Reference value :  2.82842e-05
 Reference value :  2.84547e-05
 Reference value :  2.87602e-05
 Reference value :  2.90005e-05
 Reference value :  2.90006e-05
 Reference value :  2.90007e-05
 Reference value :  2.90009e-05
 Reference value :  2.90010e-05
 Reference value :  2.90010e-05
 Reference value :  2.90011e-05
 Reference value :  2.90012e-05
 Reference value :  2.90014e-05
 Reference value :  2.90017e-05
 Reference value :  2.90021e-05
 Reference value :  2.90026e-05
 Reference value :  2.90037e-05
 Reference value :  2.90060e-05
 Reference value :  2.90104e-05
 Reference value :  2.90192e-05
 Reference value :  2.90369e-05
 Reference value :  2.90654e-05
 Reference value :  2.91015e-05
 Reference value :  2.91549e-05
 Reference value :  2.92318e-05
 Reference value :  2.93523e-05
 Reference value :  2.95094e-05
 Reference value :  2.97658e-05
 Reference value :  3.00000e-05
 Reference value :  3.00001e-05
 Reference value :  3.00002e-05
 Reference value :  3.00004e-05
 Reference value :  3.00005e-05
 Reference value :  3.00005e-05
 Reference value :  3.00005e-05
 Reference value :  3.00006e-05
 Reference value :  3.00007e-05
 Reference value :  3.00009e-05
 Reference value :  3.00012e-05
 Reference value :  3.00020e-05
 Reference value :  3.00034e-05
 Reference value :  3.00064e-05
 Reference value :  3.00101e-05
 Reference value :  3.00149e-05
 Reference value :  3.00246e-05
 Reference value :  3.00345e-05
 Reference value :  3.00495e-05
 Reference value :  3.00654e-05
 Reference value :  3.00971e-05
 Reference value :  3.01606e-05
 Reference value :  3.02842e-05
 Reference value :  3.04547e-05
 Reference value :  3.07602e-05
 Reference value :  3.10005e-05
 Reference value :  3.10005e-05
 Reference value :  3.10006e-05
 Reference value :  3.10008e-05
 Reference value :  3.10010e-05
 Reference value :  3.10010e-05
 Reference value :  3.10011e-05
 Reference value :  3.10012e-05
 Reference value :  3.10014e-05
 Reference value :  3.10017e-05
 Reference value :  3.10021e-05
 Reference value :  3.10026e-05
 Reference value :  3.10037e-05
 Reference value :  3.10060e-05
 Reference value :  3.10104e-05
 Reference value :  3.10192e-05
 Reference value :  3.10369e-05
 Reference value :  3.10654e-05
 Reference value :  3.11015e-05
 Reference value :  3.11549e-05
 Reference value :  3.12318e-05
 Reference value :  3.13523e-05
 Reference value :  3.15094e-05
 Reference value :  3.17658e-05
 Reference value :  3.20000e-05
 Reference value :  3.20000e-05
 Reference value :  3.20001e-05
 Reference value :  3.20003e-05
 Reference value :  3.20005e-05
 Reference value :  3.20005e-05
 Reference value :  3.20005e-05
 Reference value :  3.20006e-05
 Reference value :  3.20007e-05
 Reference value :  3.20009e-05
 Reference value :  3.20012e-05
 Reference value :  3.20020e-05
 Reference value :  3.20034e-05
 Reference value :  3.20064e-05
 Reference value :  3.20101e-05
 Reference value :  3.20149e-05
 Reference value :  3.20246e-05
 Reference value :  3.20345e-05
 Reference value :  3.20495e-05
 Reference value :  3.20654e-05
 Reference value :  3.20971e-05
 Reference value :  3.21606e-05
 Reference value :  3.22842e-05
 Reference value :  3.24547e-05
 Reference value :  3.27602e-05
 Reference value :  3.30005e-05
 Reference value :  3.30006e-05
 Reference value :  3.30007e-05
 Reference value :  3.30009e-05
 Reference value :  3.30010e-05
 Reference value :  3.30010e-05
 Reference value :  3.30011e-05
 Reference value :  3.30012e-05
 Reference value :  3.30014e-05
 Reference value :  3.30017e-05
 Reference value :  3.30021e-05
 Reference value :  3.30026e-05
 Reference value :  3.30037e-05
 Reference value :  3.30060e-05
 Reference value :  3.30104e-05
 Reference value :  3.30192e-05
 Reference value :  3.30369e-05
 Reference value :  3.30654e-05
 Reference value :  3.31015e-05
 Reference value :  3.31549e-05
 Reference value :  3.32318e-05
 Reference value :  3.33523e-05
 Reference value :  3.35094e-05
 Reference value :  3.37658e-05
 Reference value :  3.40000e-05
No. of Data Rows : 931
ngspice-44 done
