
Note: Compatibility modes selected: hs a


Circuit: ** sch_path: /home/madra/cace/sar-adc-using-sky130-pdk/runs/run_2025-09-01_19-39-30/parameters/inl/run_0/sar_output.sch

option SCALE: Scale is set to 1e-06 for instance and model parameters
option SCALE: Scale is set to 1e-06 for instance and model parameters
option SCALE: Scale is set to 1e-06 for instance and model parameters
option SCALE: Scale is set to 1e-06 for instance and model parameters
Doing analysis at TEMP = 27.000000 and TNOM = 27.000000

Using KLU as Direct Linear Solver
Operating point simulation skipped by 'uic',
  now using transient initial conditions.
 Reference value :  1.00000e-12
 Reference value :  1.08400e-12
 Reference value :  2.21922e-12
 Reference value :  9.15551e-12
 Reference value :  5.63375e-11
 Reference value :  1.14685e-10
 Reference value :  2.51742e-10
 Reference value :  9.49331e-10
 Reference value :  1.88410e-09
 Reference value :  4.10017e-09
 Reference value :  6.15839e-09
 Reference value :  7.62922e-09
 Reference value :  9.08247e-09
 Reference value :  1.10722e-08
 Reference value :  1.18162e-08
 Reference value :  1.32993e-08
 Reference value :  2.14837e-08
 Reference value :  3.11582e-08
 Reference value :  5.27119e-08
 Reference value :  1.35626e-07
 Reference value :  2.50110e-07
 Reference value :  2.50200e-07
 Reference value :  2.50253e-07
 Reference value :  2.50568e-07
 Reference value :  2.51400e-07
 Reference value :  2.53039e-07
 Reference value :  2.53668e-07
 Reference value :  2.54811e-07
 Reference value :  2.56997e-07
 Reference value :  2.59857e-07
 Reference value :  2.84649e-07
 Reference value :  5.00000e-07
 Reference value :  5.00070e-07
 Reference value :  5.00156e-07
 Reference value :  5.00518e-07
 Reference value :  5.01310e-07
 Reference value :  5.02312e-07
 Reference value :  5.03342e-07
 Reference value :  5.04594e-07
 Reference value :  5.07731e-07
 Reference value :  5.10014e-07
 Reference value :  5.11177e-07
 Reference value :  5.13779e-07
 Reference value :  5.19354e-07
 Reference value :  5.35377e-07
 Reference value :  6.21602e-07
 Reference value :  7.50110e-07
 Reference value :  7.50170e-07
 Reference value :  7.50224e-07
 Reference value :  7.50444e-07
 Reference value :  7.51257e-07
 Reference value :  7.52139e-07
 Reference value :  7.53493e-07
 Reference value :  7.54593e-07
 Reference value :  7.56926e-07
 Reference value :  7.67050e-07
 Reference value :  8.66001e-07
 Reference value :  1.00003e-06
 Reference value :  1.00012e-06
 Reference value :  1.00052e-06
 Reference value :  1.00131e-06
 Reference value :  1.00182e-06
 Reference value :  1.00278e-06
 Reference value :  1.00333e-06
 Reference value :  1.00449e-06
 Reference value :  1.00586e-06
 Reference value :  1.00855e-06
 Reference value :  1.01153e-06
 Reference value :  1.01379e-06
 Reference value :  1.01587e-06
 Reference value :  1.01929e-06
 Reference value :  1.02585e-06
 Reference value :  1.05293e-06
 Reference value :  1.12280e-06
 Reference value :  1.25010e-06
 Reference value :  1.25013e-06
 Reference value :  1.25020e-06
 Reference value :  1.25026e-06
 Reference value :  1.25045e-06
 Reference value :  1.25127e-06
 Reference value :  1.25216e-06
 Reference value :  1.25347e-06
 Reference value :  1.25454e-06
 Reference value :  1.25586e-06
 Reference value :  1.25985e-06
 Reference value :  1.27467e-06
 Reference value :  1.28986e-06
 Reference value :  1.30583e-06
 Reference value :  1.32023e-06
 Reference value :  1.42567e-06
 Reference value :  1.50003e-06
 Reference value :  1.50010e-06
 Reference value :  1.50012e-06
 Reference value :  1.50022e-06
 Reference value :  1.50086e-06
 Reference value :  1.50175e-06
 Reference value :  1.50268e-06
 Reference value :  1.50322e-06
 Reference value :  1.50442e-06
 Reference value :  1.50522e-06
 Reference value :  1.50671e-06
 Reference value :  1.50832e-06
 Reference value :  1.51031e-06
 Reference value :  1.52625e-06
 Reference value :  1.64192e-06
 Reference value :  1.75013e-06
 Reference value :  1.75021e-06
 Reference value :  1.75032e-06
 Reference value :  1.75083e-06
 Reference value :  1.75170e-06
 Reference value :  1.75270e-06
 Reference value :  1.75401e-06
 Reference value :  1.75527e-06
 Reference value :  1.75680e-06
 Reference value :  1.75871e-06
 Reference value :  1.76345e-06
 Reference value :  1.79469e-06
 Reference value :  1.91450e-06
 Reference value :  2.00003e-06
 Reference value :  2.00011e-06
 Reference value :  2.00022e-06
 Reference value :  2.00086e-06
 Reference value :  2.00231e-06
 Reference value :  2.00334e-06
 Reference value :  2.00519e-06
 Reference value :  2.00648e-06
 Reference value :  2.00943e-06
 Reference value :  2.01155e-06
 Reference value :  2.01351e-06
 Reference value :  2.01529e-06
 Reference value :  2.01725e-06
 Reference value :  2.01959e-06
 Reference value :  2.02346e-06
 Reference value :  2.03058e-06
 Reference value :  2.03570e-06
 Reference value :  2.04005e-06
 Reference value :  2.05381e-06
 Reference value :  2.08464e-06
 Reference value :  2.18363e-06
 Reference value :  2.25013e-06
 Reference value :  2.25021e-06
 Reference value :  2.25026e-06
 Reference value :  2.25060e-06
 Reference value :  2.25171e-06
 Reference value :  2.25273e-06
 Reference value :  2.25404e-06
 Reference value :  2.25527e-06
 Reference value :  2.25678e-06
 Reference value :  2.26319e-06
 Reference value :  2.29471e-06
 Reference value :  2.50001e-06
 Reference value :  2.50010e-06
 Reference value :  2.50016e-06
 Reference value :  2.50052e-06
 Reference value :  2.50131e-06
 Reference value :  2.50278e-06
 Reference value :  2.50391e-06
 Reference value :  2.50549e-06
 Reference value :  2.50638e-06
 Reference value :  2.50715e-06
 Reference value :  2.50887e-06
 Reference value :  2.51094e-06
 Reference value :  2.52427e-06
 Reference value :  2.66135e-06
 Reference value :  2.75013e-06
 Reference value :  2.75021e-06
 Reference value :  2.75032e-06
 Reference value :  2.75084e-06
 Reference value :  2.75171e-06
 Reference value :  2.75351e-06
 Reference value :  2.75461e-06
 Reference value :  2.75689e-06
 Reference value :  2.76274e-06
 Reference value :  2.82329e-06
 Reference value :  3.00000e-06
 Reference value :  3.00003e-06
 Reference value :  3.00010e-06
 Reference value :  3.00016e-06
 Reference value :  3.00034e-06
 Reference value :  3.00086e-06
 Reference value :  3.00182e-06
 Reference value :  3.00278e-06
 Reference value :  3.00332e-06
 Reference value :  3.00449e-06
 Reference value :  3.00586e-06
 Reference value :  3.00748e-06
 Reference value :  3.01007e-06
 Reference value :  3.01276e-06
 Reference value :  3.01376e-06
 Reference value :  3.01584e-06
 Reference value :  3.01789e-06
 Reference value :  3.02067e-06
 Reference value :  3.03045e-06
 Reference value :  3.05330e-06
 Reference value :  3.11735e-06
 Reference value :  3.25010e-06
 Reference value :  3.25017e-06
 Reference value :  3.25022e-06
 Reference value :  3.25044e-06
 Reference value :  3.25126e-06
 Reference value :  3.25214e-06
 Reference value :  3.25350e-06
 Reference value :  3.25460e-06
 Reference value :  3.25599e-06
 Reference value :  3.26016e-06
 Reference value :  3.27648e-06
 Reference value :  3.50000e-06
 Reference value :  3.50003e-06
 Reference value :  3.50010e-06
 Reference value :  3.50016e-06
 Reference value :  3.50052e-06
 Reference value :  3.50131e-06
 Reference value :  3.50231e-06
 Reference value :  3.50333e-06
 Reference value :  3.50455e-06
 Reference value :  3.50638e-06
 Reference value :  3.50716e-06
 Reference value :  3.50888e-06
 Reference value :  3.51094e-06
 Reference value :  3.51802e-06
 Reference value :  3.55252e-06
 Reference value :  3.75010e-06
 Reference value :  3.75013e-06
 Reference value :  3.75020e-06
 Reference value :  3.75022e-06
 Reference value :  3.75032e-06
 Reference value :  3.75084e-06
 Reference value :  3.75171e-06
 Reference value :  3.75273e-06
 Reference value :  3.75402e-06
 Reference value :  3.75527e-06
 Reference value :  3.75689e-06
 Reference value :  3.76275e-06
 Reference value :  3.79263e-06
 Reference value :  4.00000e-06
 Reference value :  4.00007e-06
 Reference value :  4.00011e-06
 Reference value :  4.00016e-06
 Reference value :  4.00034e-06
 Reference value :  4.00086e-06
 Reference value :  4.00182e-06
 Reference value :  4.00278e-06
 Reference value :  4.00332e-06
 Reference value :  4.00449e-06
 Reference value :  4.00585e-06
 Reference value :  4.00852e-06
 Reference value :  4.01006e-06
 Reference value :  4.01287e-06
 Reference value :  4.01490e-06
 Reference value :  4.01711e-06
 Reference value :  4.02135e-06
 Reference value :  4.03197e-06
 Reference value :  4.05024e-06
 Reference value :  4.06644e-06
 Reference value :  4.07763e-06
 Reference value :  4.08416e-06
 Reference value :  4.09033e-06
 Reference value :  4.09933e-06
 Reference value :  4.12105e-06
 Reference value :  4.20982e-06
 Reference value :  4.25013e-06
 Reference value :  4.25021e-06
 Reference value :  4.25032e-06
 Reference value :  4.25074e-06
 Reference value :  4.25194e-06
 Reference value :  4.25312e-06
 Reference value :  4.25441e-06
 Reference value :  4.25648e-06
 Reference value :  4.26140e-06
 Reference value :  4.28524e-06
 Reference value :  4.47402e-06
 Reference value :  4.50003e-06
 Reference value :  4.50010e-06
 Reference value :  4.50012e-06
 Reference value :  4.50035e-06
 Reference value :  4.50093e-06
 Reference value :  4.50196e-06
 Reference value :  4.50297e-06
 Reference value :  4.50350e-06
 Reference value :  4.50490e-06
 Reference value :  4.50641e-06
 Reference value :  4.50828e-06
 Reference value :  4.51020e-06
 Reference value :  4.51126e-06
 Reference value :  4.51903e-06
 Reference value :  4.57353e-06
 Reference value :  4.75011e-06
 Reference value :  4.75020e-06
 Reference value :  4.75025e-06
 Reference value :  4.75039e-06
 Reference value :  4.75099e-06
 Reference value :  4.75194e-06
 Reference value :  4.75311e-06
 Reference value :  4.75440e-06
 Reference value :  4.75566e-06
 Reference value :  4.75725e-06
 Reference value :  4.77070e-06
 Reference value :  4.94538e-06
 Reference value :  5.00007e-06
 Reference value :  5.00012e-06
 Reference value :  5.00035e-06
 Reference value :  5.00145e-06
 Reference value :  5.00245e-06
 Reference value :  5.00349e-06
 Reference value :  5.00466e-06
 Reference value :  5.00659e-06
 Reference value :  5.01046e-06
 Reference value :  5.01186e-06
 Reference value :  5.01441e-06
 Reference value :  5.01633e-06
 Reference value :  5.01879e-06
 Reference value :  5.02480e-06
 Reference value :  5.04103e-06
 Reference value :  5.05344e-06
 Reference value :  5.06518e-06
 Reference value :  5.08527e-06
 Reference value :  5.10765e-06
 Reference value :  5.11967e-06
 Reference value :  5.12823e-06
 Reference value :  5.14615e-06
 Reference value :  5.16285e-06
 Reference value :  5.25010e-06
 Reference value :  5.25013e-06
 Reference value :  5.25020e-06
 Reference value :  5.25025e-06
 Reference value :  5.25054e-06
 Reference value :  5.25097e-06
 Reference value :  5.25192e-06
 Reference value :  5.25308e-06
 Reference value :  5.25434e-06
 Reference value :  5.25556e-06
 Reference value :  5.25720e-06
 Reference value :  5.26437e-06
 Reference value :  5.30219e-06
 Reference value :  5.50000e-06
 Reference value :  5.50003e-06
 Reference value :  5.50010e-06
 Reference value :  5.50012e-06
 Reference value :  5.50035e-06
 Reference value :  5.50093e-06
 Reference value :  5.50196e-06
 Reference value :  5.50297e-06
 Reference value :  5.50350e-06
 Reference value :  5.50568e-06
 Reference value :  5.50731e-06
 Reference value :  5.50925e-06
 Reference value :  5.51124e-06
 Reference value :  5.51897e-06
 Reference value :  5.57329e-06
 Reference value :  5.75013e-06
 Reference value :  5.75021e-06
 Reference value :  5.75032e-06
 Reference value :  5.75074e-06
 Reference value :  5.75194e-06
 Reference value :  5.75382e-06
 Reference value :  5.75503e-06
 Reference value :  5.75643e-06
 Reference value :  5.76454e-06
 Reference value :  5.85143e-06
 Reference value :  6.00001e-06
 Reference value :  6.00010e-06
 Reference value :  6.00022e-06
 Reference value :  6.00093e-06
 Reference value :  6.00245e-06
 Reference value :  6.00349e-06
 Reference value :  6.00466e-06
 Reference value :  6.00659e-06
 Reference value :  6.01046e-06
 Reference value :  6.01186e-06
 Reference value :  6.01441e-06
 Reference value :  6.01541e-06
 Reference value :  6.01634e-06
 Reference value :  6.02004e-06
 Reference value :  6.02840e-06
 Reference value :  6.03819e-06
 Reference value :  6.04767e-06
 Reference value :  6.06474e-06
 Reference value :  6.11060e-06
 Reference value :  6.25010e-06
 Reference value :  6.25017e-06
 Reference value :  6.25022e-06
 Reference value :  6.25039e-06
 Reference value :  6.25097e-06
 Reference value :  6.25193e-06
 Reference value :  6.25308e-06
 Reference value :  6.25431e-06
 Reference value :  6.25553e-06
 Reference value :  6.25727e-06
 Reference value :  6.26446e-06
 Reference value :  6.34312e-06
 Reference value :  6.39158e-06
 Reference value :  6.43615e-06
 Reference value :  6.46791e-06
 Reference value :  6.50001e-06
 Reference value :  6.50010e-06
 Reference value :  6.50022e-06
 Reference value :  6.50093e-06
 Reference value :  6.50196e-06
 Reference value :  6.50297e-06
 Reference value :  6.50350e-06
 Reference value :  6.50488e-06
 Reference value :  6.50641e-06
 Reference value :  6.50928e-06
 Reference value :  6.51126e-06
 Reference value :  6.52648e-06
 Reference value :  6.56963e-06
 Reference value :  6.75010e-06
 Reference value :  6.75013e-06
 Reference value :  6.75021e-06
 Reference value :  6.75026e-06
 Reference value :  6.75054e-06
 Reference value :  6.75147e-06
 Reference value :  6.75245e-06
 Reference value :  6.75382e-06
 Reference value :  6.75440e-06
 Reference value :  6.75644e-06
 Reference value :  6.75889e-06
 Reference value :  6.77071e-06
 Reference value :  6.85191e-06
 Reference value :  7.00001e-06
 Reference value :  7.00010e-06
 Reference value :  7.00016e-06
 Reference value :  7.00059e-06
 Reference value :  7.00196e-06
 Reference value :  7.00297e-06
 Reference value :  7.00349e-06
 Reference value :  7.00466e-06
 Reference value :  7.00588e-06
 Reference value :  7.00872e-06
 Reference value :  7.01186e-06
 Reference value :  7.01441e-06
 Reference value :  7.01634e-06
 Reference value :  7.01878e-06
 Reference value :  7.02210e-06
 Reference value :  7.02788e-06
 Reference value :  7.03656e-06
 Reference value :  7.04013e-06
 Reference value :  7.04885e-06
 Reference value :  7.06910e-06
 Reference value :  7.10984e-06
 Reference value :  7.20047e-06
 Reference value :  7.25011e-06
 Reference value :  7.25017e-06
 Reference value :  7.25022e-06
 Reference value :  7.25039e-06
 Reference value :  7.25097e-06
 Reference value :  7.25193e-06
 Reference value :  7.25240e-06
 Reference value :  7.25432e-06
 Reference value :  7.25553e-06
 Reference value :  7.25725e-06
 Reference value :  7.26107e-06
 Reference value :  7.28222e-06
 Reference value :  7.42273e-06
 Reference value :  7.50003e-06
 Reference value :  7.50011e-06
 Reference value :  7.50022e-06
 Reference value :  7.50093e-06
 Reference value :  7.50196e-06
 Reference value :  7.50293e-06
 Reference value :  7.50347e-06
 Reference value :  7.50471e-06
 Reference value :  7.50648e-06
 Reference value :  7.50836e-06
 Reference value :  7.50928e-06
 Reference value :  7.51138e-06
 Reference value :  7.51873e-06
 Reference value :  7.53764e-06
 Reference value :  7.60113e-06
 Reference value :  7.68578e-06
 Reference value :  7.75013e-06
 Reference value :  7.75021e-06
 Reference value :  7.75026e-06
 Reference value :  7.75054e-06
 Reference value :  7.75099e-06
 Reference value :  7.75194e-06
 Reference value :  7.75245e-06
 Reference value :  7.75382e-06
 Reference value :  7.75440e-06
 Reference value :  7.75567e-06
 Reference value :  7.75644e-06
 Reference value :  7.75808e-06
 Reference value :  7.76026e-06
 Reference value :  7.76406e-06
 Reference value :  7.78095e-06
 Reference value :  7.85160e-06
 Reference value :  8.00001e-06
 Reference value :  8.00010e-06
 Reference value :  8.00012e-06
 Reference value :  8.00022e-06
 Reference value :  8.00059e-06
 Reference value :  8.00145e-06
 Reference value :  8.00245e-06
 Reference value :  8.00350e-06
 Reference value :  8.00410e-06
 Reference value :  8.00459e-06
 Reference value :  8.00583e-06
 Reference value :  8.00731e-06
 Reference value :  8.00898e-06
 Reference value :  8.01048e-06
 Reference value :  8.01138e-06
 Reference value :  8.01426e-06
 Reference value :  8.01984e-06
 Reference value :  8.02705e-06
 Reference value :  8.04104e-06
 Reference value :  8.05792e-06
 Reference value :  8.08652e-06
 Reference value :  8.11943e-06
 Reference value :  8.17853e-06
 Reference value :  8.25010e-06
 Reference value :  8.25013e-06
 Reference value :  8.25020e-06
 Reference value :  8.25026e-06
 Reference value :  8.25045e-06
 Reference value :  8.25119e-06
 Reference value :  8.25206e-06
 Reference value :  8.25330e-06
 Reference value :  8.25504e-06
 Reference value :  8.25694e-06
 Reference value :  8.26024e-06
 Reference value :  8.27780e-06
 Reference value :  8.40960e-06
 Reference value :  8.50003e-06
 Reference value :  8.50011e-06
 Reference value :  8.50022e-06
 Reference value :  8.50094e-06
 Reference value :  8.50143e-06
 Reference value :  8.50244e-06
 Reference value :  8.50357e-06
 Reference value :  8.50489e-06
 Reference value :  8.50714e-06
 Reference value :  8.51987e-06
 Reference value :  8.52615e-06
 Reference value :  8.53073e-06
 Reference value :  8.53819e-06
 Reference value :  8.54358e-06
 Reference value :  8.54987e-06
 Reference value :  8.55665e-06
 Reference value :  8.56919e-06
 Reference value :  8.59576e-06
 Reference value :  8.70441e-06
 Reference value :  8.75011e-06
 Reference value :  8.75017e-06
 Reference value :  8.75021e-06
 Reference value :  8.75032e-06
 Reference value :  8.75060e-06
 Reference value :  8.75126e-06
 Reference value :  8.75214e-06
 Reference value :  8.75348e-06
 Reference value :  8.75398e-06
 Reference value :  8.75521e-06
 Reference value :  8.75670e-06
 Reference value :  8.76002e-06
 Reference value :  8.77565e-06
 Reference value :  8.89078e-06
 Reference value :  9.00001e-06
 Reference value :  9.00007e-06
 Reference value :  9.00011e-06
 Reference value :  9.00022e-06
 Reference value :  9.00052e-06
 Reference value :  9.00131e-06
 Reference value :  9.00231e-06
 Reference value :  9.00332e-06
 Reference value :  9.00390e-06
 Reference value :  9.00454e-06
 Reference value :  9.00636e-06
 Reference value :  9.00757e-06
 Reference value :  9.00985e-06
 Reference value :  9.01108e-06
 Reference value :  9.01239e-06
 Reference value :  9.01366e-06
 Reference value :  9.01529e-06
 Reference value :  9.01892e-06
 Reference value :  9.03408e-06
 Reference value :  9.10706e-06
 Reference value :  9.25011e-06
 Reference value :  9.25020e-06
 Reference value :  9.25026e-06
 Reference value :  9.25060e-06
 Reference value :  9.25170e-06
 Reference value :  9.25270e-06
 Reference value :  9.25401e-06
 Reference value :  9.25598e-06
 Reference value :  9.26019e-06
 Reference value :  9.27728e-06
 Reference value :  9.38488e-06
 Reference value :  9.50003e-06
 Reference value :  9.50010e-06
 Reference value :  9.50016e-06
 Reference value :  9.50052e-06
 Reference value :  9.50182e-06
 Reference value :  9.50332e-06
 Reference value :  9.50448e-06
 Reference value :  9.50585e-06
 Reference value :  9.50852e-06
 Reference value :  9.51005e-06
 Reference value :  9.51274e-06
 Reference value :  9.51374e-06
 Reference value :  9.51582e-06
 Reference value :  9.51786e-06
 Reference value :  9.52237e-06
 Reference value :  9.55342e-06
 Reference value :  9.70400e-06
 Reference value :  9.75010e-06
 Reference value :  9.75017e-06
 Reference value :  9.75022e-06
 Reference value :  9.75045e-06
 Reference value :  9.75127e-06
 Reference value :  9.75216e-06
 Reference value :  9.75348e-06
 Reference value :  9.75455e-06
 Reference value :  9.75587e-06
 Reference value :  9.75989e-06
 Reference value :  9.77485e-06
 Reference value :  9.79867e-06
 Reference value :  9.81400e-06
 Reference value :  9.86948e-06
 Reference value :  1.00000e-05
 Reference value :  1.00000e-05
 Reference value :  1.00001e-05
 Reference value :  1.00002e-05
 Reference value :  1.00005e-05
 Reference value :  1.00018e-05
 Reference value :  1.00032e-05
 Reference value :  1.00052e-05
 Reference value :  1.00067e-05
 Reference value :  1.00083e-05
 Reference value :  1.00103e-05
 Reference value :  1.00179e-05
 Reference value :  1.00744e-05
 Reference value :  1.02501e-05
 Reference value :  1.02501e-05
 Reference value :  1.02502e-05
 Reference value :  1.02503e-05
 Reference value :  1.02504e-05
 Reference value :  1.02508e-05
 Reference value :  1.02517e-05
 Reference value :  1.02527e-05
 Reference value :  1.02540e-05
 Reference value :  1.02553e-05
 Reference value :  1.02560e-05
 Reference value :  1.02577e-05
 Reference value :  1.02617e-05
 Reference value :  1.02723e-05
 Reference value :  1.03167e-05
 Reference value :  1.05000e-05
 Reference value :  1.05000e-05
 Reference value :  1.05001e-05
 Reference value :  1.05002e-05
 Reference value :  1.05003e-05
 Reference value :  1.05009e-05
 Reference value :  1.05018e-05
 Reference value :  1.05028e-05
 Reference value :  1.05033e-05
 Reference value :  1.05046e-05
 Reference value :  1.05058e-05
 Reference value :  1.05073e-05
 Reference value :  1.05094e-05
 Reference value :  1.05115e-05
 Reference value :  1.05135e-05
 Reference value :  1.05153e-05
 Reference value :  1.05172e-05
 Reference value :  1.05193e-05
 Reference value :  1.05208e-05
 Reference value :  1.05252e-05
 Reference value :  1.05285e-05
 Reference value :  1.05318e-05
 Reference value :  1.05340e-05
 Reference value :  1.05380e-05
 Reference value :  1.05436e-05
 Reference value :  1.05586e-05
 Reference value :  1.05840e-05
 Reference value :  1.06435e-05
 Reference value :  1.07501e-05
 Reference value :  1.07501e-05
 Reference value :  1.07502e-05
 Reference value :  1.07503e-05
 Reference value :  1.07504e-05
 Reference value :  1.07508e-05
 Reference value :  1.07517e-05
 Reference value :  1.07527e-05
 Reference value :  1.07535e-05
 Reference value :  1.07540e-05
 Reference value :  1.07552e-05
 Reference value :  1.07560e-05
 Reference value :  1.07601e-05
 Reference value :  1.07764e-05
 Reference value :  1.08922e-05
 Reference value :  1.10000e-05
 Reference value :  1.10001e-05
 Reference value :  1.10002e-05
 Reference value :  1.10003e-05
 Reference value :  1.10009e-05
 Reference value :  1.10018e-05
 Reference value :  1.10028e-05
 Reference value :  1.10039e-05
 Reference value :  1.10055e-05
 Reference value :  1.10071e-05
 Reference value :  1.10089e-05
 Reference value :  1.10109e-05
 Reference value :  1.10179e-05
 Reference value :  1.10519e-05
 Reference value :  1.12501e-05
 Reference value :  1.12502e-05
 Reference value :  1.12503e-05
 Reference value :  1.12506e-05
 Reference value :  1.12517e-05
 Reference value :  1.12527e-05
 Reference value :  1.12540e-05
 Reference value :  1.12553e-05
 Reference value :  1.12569e-05
 Reference value :  1.12627e-05
 Reference value :  1.12922e-05
 Reference value :  1.15000e-05
 Reference value :  1.15001e-05
 Reference value :  1.15001e-05
 Reference value :  1.15003e-05
 Reference value :  1.15013e-05
 Reference value :  1.15023e-05
 Reference value :  1.15033e-05
 Reference value :  1.15052e-05
 Reference value :  1.15065e-05
 Reference value :  1.15101e-05
 Reference value :  1.15128e-05
 Reference value :  1.15147e-05
 Reference value :  1.15168e-05
 Reference value :  1.15203e-05
 Reference value :  1.15371e-05
 Reference value :  1.16151e-05
 Reference value :  1.17501e-05
 Reference value :  1.17502e-05
 Reference value :  1.17502e-05
 Reference value :  1.17504e-05
 Reference value :  1.17513e-05
 Reference value :  1.17521e-05
 Reference value :  1.17535e-05
 Reference value :  1.17540e-05
 Reference value :  1.17552e-05
 Reference value :  1.17560e-05
 Reference value :  1.17602e-05
 Reference value :  1.17942e-05
 Reference value :  1.20000e-05
 Reference value :  1.20001e-05
 Reference value :  1.20002e-05
 Reference value :  1.20005e-05
 Reference value :  1.20013e-05
 Reference value :  1.20023e-05
 Reference value :  1.20033e-05
 Reference value :  1.20045e-05
 Reference value :  1.20064e-05
 Reference value :  1.20071e-05
 Reference value :  1.20089e-05
 Reference value :  1.20109e-05
 Reference value :  1.20179e-05
 Reference value :  1.20518e-05
 Reference value :  1.22501e-05
 Reference value :  1.22502e-05
 Reference value :  1.22502e-05
 Reference value :  1.22504e-05
 Reference value :  1.22513e-05
 Reference value :  1.22522e-05
 Reference value :  1.22535e-05
 Reference value :  1.22540e-05
 Reference value :  1.22553e-05
 Reference value :  1.22569e-05
 Reference value :  1.22602e-05
 Reference value :  1.22770e-05
 Reference value :  1.23842e-05
 Reference value :  1.25000e-05
 Reference value :  1.25001e-05
 Reference value :  1.25002e-05
 Reference value :  1.25003e-05
 Reference value :  1.25009e-05
 Reference value :  1.25018e-05
 Reference value :  1.25028e-05
 Reference value :  1.25033e-05
 Reference value :  1.25045e-05
 Reference value :  1.25059e-05
 Reference value :  1.25075e-05
 Reference value :  1.25101e-05
 Reference value :  1.25129e-05
 Reference value :  1.25139e-05
 Reference value :  1.25160e-05
 Reference value :  1.25170e-05
 Reference value :  1.25192e-05
 Reference value :  1.25249e-05
 Reference value :  1.25439e-05
 Reference value :  1.25617e-05
 Reference value :  1.25775e-05
 Reference value :  1.25924e-05
 Reference value :  1.26027e-05
 Reference value :  1.26187e-05
 Reference value :  1.26608e-05
 Reference value :  1.27501e-05
 Reference value :  1.27502e-05
 Reference value :  1.27503e-05
 Reference value :  1.27505e-05
 Reference value :  1.27515e-05
 Reference value :  1.27531e-05
 Reference value :  1.27544e-05
 Reference value :  1.27557e-05
 Reference value :  1.27574e-05
 Reference value :  1.27718e-05
 Reference value :  1.28669e-05
 Reference value :  1.30000e-05
 Reference value :  1.30001e-05
 Reference value :  1.30002e-05
 Reference value :  1.30006e-05
 Reference value :  1.30015e-05
 Reference value :  1.30024e-05
 Reference value :  1.30035e-05
 Reference value :  1.30049e-05
 Reference value :  1.30064e-05
 Reference value :  1.30083e-05
 Reference value :  1.30102e-05
 Reference value :  1.30113e-05
 Reference value :  1.30190e-05
 Reference value :  1.30716e-05
 Reference value :  1.32501e-05
 Reference value :  1.32501e-05
 Reference value :  1.32502e-05
 Reference value :  1.32503e-05
 Reference value :  1.32504e-05
 Reference value :  1.32507e-05
 Reference value :  1.32515e-05
 Reference value :  1.32524e-05
 Reference value :  1.32538e-05
 Reference value :  1.32544e-05
 Reference value :  1.32557e-05
 Reference value :  1.32564e-05
 Reference value :  1.32589e-05
 Reference value :  1.32707e-05
 Reference value :  1.33057e-05
 Reference value :  1.35000e-05
 Reference value :  1.35001e-05
 Reference value :  1.35001e-05
 Reference value :  1.35002e-05
 Reference value :  1.35006e-05
 Reference value :  1.35015e-05
 Reference value :  1.35024e-05
 Reference value :  1.35030e-05
 Reference value :  1.35035e-05
 Reference value :  1.35047e-05
 Reference value :  1.35059e-05
 Reference value :  1.35087e-05
 Reference value :  1.35105e-05
 Reference value :  1.35119e-05
 Reference value :  1.35143e-05
 Reference value :  1.35164e-05
 Reference value :  1.35187e-05
 Reference value :  1.35239e-05
 Reference value :  1.35331e-05
 Reference value :  1.35452e-05
 Reference value :  1.35496e-05
 Reference value :  1.35594e-05
 Reference value :  1.35719e-05
 Reference value :  1.35857e-05
 Reference value :  1.36062e-05
 Reference value :  1.36153e-05
 Reference value :  1.36272e-05
 Reference value :  1.36371e-05
 Reference value :  1.36550e-05
 Reference value :  1.36825e-05
 Reference value :  1.37464e-05
 Reference value :  1.37501e-05
 Reference value :  1.37502e-05
 Reference value :  1.37502e-05
 Reference value :  1.37503e-05
 Reference value :  1.37507e-05
 Reference value :  1.37510e-05
 Reference value :  1.37519e-05
 Reference value :  1.37531e-05
 Reference value :  1.37543e-05
 Reference value :  1.37556e-05
 Reference value :  1.37572e-05
 Reference value :  1.37642e-05
 Reference value :  1.38011e-05
 Reference value :  1.40000e-05
 Reference value :  1.40000e-05
 Reference value :  1.40001e-05
 Reference value :  1.40001e-05
 Reference value :  1.40003e-05
 Reference value :  1.40009e-05
 Reference value :  1.40020e-05
 Reference value :  1.40024e-05
 Reference value :  1.40035e-05
 Reference value :  1.40049e-05
 Reference value :  1.40064e-05
 Reference value :  1.40083e-05
 Reference value :  1.40102e-05
 Reference value :  1.40113e-05
 Reference value :  1.40149e-05
 Reference value :  1.40425e-05
 Reference value :  1.42500e-05
 Reference value :  1.42501e-05
 Reference value :  1.42502e-05
 Reference value :  1.42503e-05
 Reference value :  1.42507e-05
 Reference value :  1.42519e-05
 Reference value :  1.42531e-05
 Reference value :  1.42544e-05
 Reference value :  1.42564e-05
 Reference value :  1.42612e-05
 Reference value :  1.42830e-05
 Reference value :  1.44425e-05
 Reference value :  1.45000e-05
 Reference value :  1.45001e-05
 Reference value :  1.45001e-05
 Reference value :  1.45002e-05
 Reference value :  1.45006e-05
 Reference value :  1.45015e-05
 Reference value :  1.45024e-05
 Reference value :  1.45035e-05
 Reference value :  1.45047e-05
 Reference value :  1.45066e-05
 Reference value :  1.45105e-05
 Reference value :  1.45119e-05
 Reference value :  1.45143e-05
 Reference value :  1.45164e-05
 Reference value :  1.45187e-05
 Reference value :  1.45239e-05
 Reference value :  1.45370e-05
 Reference value :  1.45481e-05
 Reference value :  1.45599e-05
 Reference value :  1.45754e-05
 Reference value :  1.46177e-05
 Reference value :  1.47501e-05
 Reference value :  1.47502e-05
 Reference value :  1.47503e-05
 Reference value :  1.47505e-05
 Reference value :  1.47514e-05
 Reference value :  1.47524e-05
 Reference value :  1.47538e-05
 Reference value :  1.47549e-05
 Reference value :  1.47563e-05
 Reference value :  1.47610e-05
 Reference value :  1.48017e-05
 Reference value :  1.48991e-05
 Reference value :  1.49490e-05
 Reference value :  1.49843e-05
 Reference value :  1.50000e-05
 Reference value :  1.50001e-05
 Reference value :  1.50002e-05
 Reference value :  1.50009e-05
 Reference value :  1.50024e-05
 Reference value :  1.50035e-05
 Reference value :  1.50049e-05
 Reference value :  1.50064e-05
 Reference value :  1.50083e-05
 Reference value :  1.50102e-05
 Reference value :  1.50125e-05
 Reference value :  1.50265e-05
 Reference value :  1.51046e-05
 Reference value :  1.52501e-05
 Reference value :  1.52502e-05
 Reference value :  1.52503e-05
 Reference value :  1.52507e-05
 Reference value :  1.52519e-05
 Reference value :  1.52531e-05
 Reference value :  1.52544e-05
 Reference value :  1.52564e-05
 Reference value :  1.52612e-05
 Reference value :  1.52830e-05
 Reference value :  1.54423e-05
 Reference value :  1.55011e-05
 Reference value :  1.55043e-05
 Reference value :  1.55062e-05
 Reference value :  1.55080e-05
 Reference value :  1.55106e-05
 Reference value :  1.55134e-05
 Reference value :  1.55155e-05
 Reference value :  1.55177e-05
 Reference value :  1.55217e-05
 Reference value :  1.55302e-05
 Reference value :  1.55341e-05
 Reference value :  1.55404e-05
 Reference value :  1.55472e-05
 Reference value :  1.55674e-05
 Reference value :  1.56022e-05
 Reference value :  1.57491e-05
 Reference value :  1.57501e-05
 Reference value :  1.57502e-05
 Reference value :  1.57503e-05
 Reference value :  1.57507e-05
 Reference value :  1.57512e-05
 Reference value :  1.57515e-05
 Reference value :  1.57524e-05
 Reference value :  1.57542e-05
 Reference value :  1.57554e-05
 Reference value :  1.57569e-05
 Reference value :  1.57634e-05
 Reference value :  1.57929e-05
 Reference value :  1.59697e-05
 Reference value :  1.60000e-05
 Reference value :  1.60001e-05
 Reference value :  1.60002e-05
 Reference value :  1.60006e-05
 Reference value :  1.60015e-05
 Reference value :  1.60024e-05
 Reference value :  1.60035e-05
 Reference value :  1.60047e-05
 Reference value :  1.60056e-05
 Reference value :  1.60065e-05
 Reference value :  1.60084e-05
 Reference value :  1.60103e-05
 Reference value :  1.60126e-05
 Reference value :  1.60255e-05
 Reference value :  1.61011e-05
 Reference value :  1.62501e-05
 Reference value :  1.62502e-05
 Reference value :  1.62503e-05
 Reference value :  1.62504e-05
 Reference value :  1.62507e-05
 Reference value :  1.62515e-05
 Reference value :  1.62524e-05
 Reference value :  1.62538e-05
 Reference value :  1.62544e-05
 Reference value :  1.62557e-05
 Reference value :  1.62564e-05
 Reference value :  1.62581e-05
 Reference value :  1.62603e-05
 Reference value :  1.62641e-05
 Reference value :  1.62729e-05
 Reference value :  1.63163e-05
 Reference value :  1.64203e-05
 Reference value :  1.65000e-05
 Reference value :  1.65001e-05
 Reference value :  1.65002e-05
 Reference value :  1.65006e-05
 Reference value :  1.65015e-05
 Reference value :  1.65024e-05
 Reference value :  1.65035e-05
 Reference value :  1.65046e-05
 Reference value :  1.65058e-05
 Reference value :  1.65073e-05
 Reference value :  1.65090e-05
 Reference value :  1.65105e-05
 Reference value :  1.65123e-05
 Reference value :  1.65198e-05
 Reference value :  1.65271e-05
 Reference value :  1.65410e-05
 Reference value :  1.65579e-05
 Reference value :  1.65865e-05
 Reference value :  1.66194e-05
 Reference value :  1.67347e-05
 Reference value :  1.67501e-05
 Reference value :  1.67502e-05
 Reference value :  1.67503e-05
 Reference value :  1.67506e-05
 Reference value :  1.67516e-05
 Reference value :  1.67533e-05
 Reference value :  1.67560e-05
 Reference value :  1.67586e-05
 Reference value :  1.67778e-05
 Reference value :  1.70000e-05
 Reference value :  1.70015e-05
 Reference value :  1.70046e-05
 Reference value :  1.70061e-05
 Reference value :  1.70093e-05
 Reference value :  1.70164e-05
 Reference value :  1.70255e-05
 Reference value :  1.70289e-05
 Reference value :  1.70316e-05
 Reference value :  1.70340e-05
 Reference value :  1.70374e-05
 Reference value :  1.70422e-05
 Reference value :  1.70481e-05
 Reference value :  1.70556e-05
 Reference value :  1.70654e-05
 Reference value :  1.70822e-05
 Reference value :  1.72063e-05
 Reference value :  1.72501e-05
 Reference value :  1.72502e-05
 Reference value :  1.72503e-05
 Reference value :  1.72506e-05
 Reference value :  1.72513e-05
 Reference value :  1.72521e-05
 Reference value :  1.72535e-05
 Reference value :  1.72540e-05
 Reference value :  1.72552e-05
 Reference value :  1.72567e-05
 Reference value :  1.72601e-05
 Reference value :  1.72673e-05
 Reference value :  1.73255e-05
 Reference value :  1.75000e-05
 Reference value :  1.75001e-05
 Reference value :  1.75001e-05
 Reference value :  1.75002e-05
 Reference value :  1.75003e-05
 Reference value :  1.75009e-05
 Reference value :  1.75018e-05
 Reference value :  1.75028e-05
 Reference value :  1.75039e-05
 Reference value :  1.75055e-05
 Reference value :  1.75076e-05
 Reference value :  1.75099e-05
 Reference value :  1.75111e-05
 Reference value :  1.75137e-05
 Reference value :  1.75173e-05
 Reference value :  1.75229e-05
 Reference value :  1.75480e-05
 Reference value :  1.77501e-05
 Reference value :  1.77502e-05
 Reference value :  1.77502e-05
 Reference value :  1.77503e-05
 Reference value :  1.77508e-05
 Reference value :  1.77517e-05
 Reference value :  1.77527e-05
 Reference value :  1.77540e-05
 Reference value :  1.77553e-05
 Reference value :  1.77569e-05
 Reference value :  1.77602e-05
 Reference value :  1.77679e-05
 Reference value :  1.78235e-05
 Reference value :  1.80021e-05
 Reference value :  1.80084e-05
 Reference value :  1.80121e-05
 Reference value :  1.80134e-05
 Reference value :  1.80159e-05
 Reference value :  1.80187e-05
 Reference value :  1.80223e-05
 Reference value :  1.80389e-05
 Reference value :  1.80812e-05
 Reference value :  1.82151e-05
 Reference value :  1.82501e-05
 Reference value :  1.82501e-05
 Reference value :  1.82502e-05
 Reference value :  1.82502e-05
 Reference value :  1.82503e-05
 Reference value :  1.82506e-05
 Reference value :  1.82513e-05
 Reference value :  1.82522e-05
 Reference value :  1.82527e-05
 Reference value :  1.82536e-05
 Reference value :  1.82546e-05
 Reference value :  1.82559e-05
 Reference value :  1.82583e-05
 Reference value :  1.82671e-05
 Reference value :  1.82730e-05
 Reference value :  1.82922e-05
 Reference value :  1.83069e-05
 Reference value :  1.83431e-05
 Reference value :  1.85000e-05
 Reference value :  1.85001e-05
 Reference value :  1.85002e-05
 Reference value :  1.85003e-05
 Reference value :  1.85009e-05
 Reference value :  1.85018e-05
 Reference value :  1.85032e-05
 Reference value :  1.85044e-05
 Reference value :  1.85052e-05
 Reference value :  1.85067e-05
 Reference value :  1.85083e-05
 Reference value :  1.85103e-05
 Reference value :  1.85251e-05
 Reference value :  1.86302e-05
 Reference value :  1.87501e-05
 Reference value :  1.87502e-05
 Reference value :  1.87503e-05
 Reference value :  1.87508e-05
 Reference value :  1.87517e-05
 Reference value :  1.87535e-05
 Reference value :  1.87546e-05
 Reference value :  1.87560e-05
 Reference value :  1.87576e-05
 Reference value :  1.87597e-05
 Reference value :  1.87667e-05
 Reference value :  1.87939e-05
 Reference value :  1.89091e-05
 Reference value :  1.90000e-05
 Reference value :  1.90001e-05
 Reference value :  1.90002e-05
 Reference value :  1.90009e-05
 Reference value :  1.90018e-05
 Reference value :  1.90028e-05
 Reference value :  1.90033e-05
 Reference value :  1.90046e-05
 Reference value :  1.90058e-05
 Reference value :  1.90073e-05
 Reference value :  1.90105e-05
 Reference value :  1.90115e-05
 Reference value :  1.90135e-05
 Reference value :  1.90153e-05
 Reference value :  1.90184e-05
 Reference value :  1.90271e-05
 Reference value :  1.90306e-05
 Reference value :  1.90357e-05
 Reference value :  1.90401e-05
 Reference value :  1.90539e-05
 Reference value :  1.90846e-05
 Reference value :  1.91819e-05
 Reference value :  1.92501e-05
 Reference value :  1.92502e-05
 Reference value :  1.92503e-05
 Reference value :  1.92508e-05
 Reference value :  1.92517e-05
 Reference value :  1.92527e-05
 Reference value :  1.92535e-05
 Reference value :  1.92540e-05
 Reference value :  1.92553e-05
 Reference value :  1.92560e-05
 Reference value :  1.92583e-05
 Reference value :  1.92677e-05
 Reference value :  1.93263e-05
 Reference value :  1.95020e-05
 Reference value :  1.95060e-05
 Reference value :  1.95081e-05
 Reference value :  1.95123e-05
 Reference value :  1.95162e-05
 Reference value :  1.95265e-05
 Reference value :  1.95583e-05
 Reference value :  1.96217e-05
 Reference value :  1.97501e-05
 Reference value :  1.97502e-05
 Reference value :  1.97502e-05
 Reference value :  1.97503e-05
 Reference value :  1.97506e-05
 Reference value :  1.97513e-05
 Reference value :  1.97521e-05
 Reference value :  1.97532e-05
 Reference value :  1.97542e-05
 Reference value :  1.97552e-05
 Reference value :  1.97583e-05
 Reference value :  1.97673e-05
 Reference value :  1.98973e-05
 Reference value :  2.00000e-05
 Reference value :  2.00001e-05
 Reference value :  2.00002e-05
 Reference value :  2.00005e-05
 Reference value :  2.00013e-05
 Reference value :  2.00028e-05
 Reference value :  2.00039e-05
 Reference value :  2.00052e-05
 Reference value :  2.00065e-05
 Reference value :  2.00101e-05
 Reference value :  2.00128e-05
 Reference value :  2.00138e-05
 Reference value :  2.00147e-05
 Reference value :  2.00168e-05
 Reference value :  2.00191e-05
 Reference value :  2.00253e-05
 Reference value :  2.00384e-05
 Reference value :  2.00786e-05
 Reference value :  2.01757e-05
 Reference value :  2.02501e-05
 Reference value :  2.02501e-05
 Reference value :  2.02502e-05
 Reference value :  2.02503e-05
 Reference value :  2.02504e-05
 Reference value :  2.02508e-05
 Reference value :  2.02517e-05
 Reference value :  2.02527e-05
 Reference value :  2.02535e-05
 Reference value :  2.02540e-05
 Reference value :  2.02553e-05
 Reference value :  2.02560e-05
 Reference value :  2.02583e-05
 Reference value :  2.02676e-05
 Reference value :  2.03271e-05
 Reference value :  2.05020e-05
 Reference value :  2.05059e-05
 Reference value :  2.05079e-05
 Reference value :  2.05122e-05
 Reference value :  2.05195e-05
 Reference value :  2.05360e-05
 Reference value :  2.05946e-05
 Reference value :  2.07501e-05
 Reference value :  2.07502e-05
 Reference value :  2.07502e-05
 Reference value :  2.07504e-05
 Reference value :  2.07513e-05
 Reference value :  2.07521e-05
 Reference value :  2.07532e-05
 Reference value :  2.07536e-05
 Reference value :  2.07547e-05
 Reference value :  2.07560e-05
 Reference value :  2.07583e-05
 Reference value :  2.07673e-05
 Reference value :  2.08280e-05
 Reference value :  2.10000e-05
 Reference value :  2.10001e-05
 Reference value :  2.10002e-05
 Reference value :  2.10005e-05
 Reference value :  2.10013e-05
 Reference value :  2.10028e-05
 Reference value :  2.10039e-05
 Reference value :  2.10052e-05
 Reference value :  2.10065e-05
 Reference value :  2.10101e-05
 Reference value :  2.10129e-05
 Reference value :  2.10139e-05
 Reference value :  2.10161e-05
 Reference value :  2.10182e-05
 Reference value :  2.10230e-05
 Reference value :  2.10401e-05
 Reference value :  2.10501e-05
 Reference value :  2.10663e-05
 Reference value :  2.10775e-05
 Reference value :  2.10841e-05
 Reference value :  2.10903e-05
 Reference value :  2.10993e-05
 Reference value :  2.11209e-05
 Reference value :  2.12086e-05
 Reference value :  2.12501e-05
 Reference value :  2.12502e-05
 Reference value :  2.12503e-05
 Reference value :  2.12507e-05
 Reference value :  2.12519e-05
 Reference value :  2.12531e-05
 Reference value :  2.12544e-05
 Reference value :  2.12565e-05
 Reference value :  2.12614e-05
 Reference value :  2.13122e-05
 Reference value :  2.15000e-05
 Reference value :  2.15001e-05
 Reference value :  2.15001e-05
 Reference value :  2.15003e-05
 Reference value :  2.15009e-05
 Reference value :  2.15024e-05
 Reference value :  2.15035e-05
 Reference value :  2.15057e-05
 Reference value :  2.15064e-05
 Reference value :  2.15083e-05
 Reference value :  2.15113e-05
 Reference value :  2.15190e-05
 Reference value :  2.15720e-05
 Reference value :  2.17501e-05
 Reference value :  2.17502e-05
 Reference value :  2.17502e-05
 Reference value :  2.17504e-05
 Reference value :  2.17510e-05
 Reference value :  2.17519e-05
 Reference value :  2.17531e-05
 Reference value :  2.17544e-05
 Reference value :  2.17557e-05
 Reference value :  2.17573e-05
 Reference value :  2.17707e-05
 Reference value :  2.18058e-05
 Reference value :  2.19422e-05
 Reference value :  2.20010e-05
 Reference value :  2.20040e-05
 Reference value :  2.20058e-05
 Reference value :  2.20079e-05
 Reference value :  2.20103e-05
 Reference value :  2.20117e-05
 Reference value :  2.20141e-05
 Reference value :  2.20163e-05
 Reference value :  2.20184e-05
 Reference value :  2.20230e-05
 Reference value :  2.20356e-05
 Reference value :  2.20482e-05
 Reference value :  2.20589e-05
 Reference value :  2.20712e-05
 Reference value :  2.20948e-05
 Reference value :  2.21252e-05
 Reference value :  2.21453e-05
 Reference value :  2.21618e-05
 Reference value :  2.22465e-05
 Reference value :  2.22501e-05
 Reference value :  2.22502e-05
 Reference value :  2.22503e-05
 Reference value :  2.22505e-05
 Reference value :  2.22509e-05
 Reference value :  2.22515e-05
 Reference value :  2.22524e-05
 Reference value :  2.22543e-05
 Reference value :  2.22562e-05
 Reference value :  2.22638e-05
 Reference value :  2.23254e-05
 Reference value :  2.25000e-05
 Reference value :  2.25001e-05
 Reference value :  2.25002e-05
 Reference value :  2.25009e-05
 Reference value :  2.25024e-05
 Reference value :  2.25035e-05
 Reference value :  2.25057e-05
 Reference value :  2.25064e-05
 Reference value :  2.25083e-05
 Reference value :  2.25102e-05
 Reference value :  2.25125e-05
 Reference value :  2.25268e-05
 Reference value :  2.26307e-05
 Reference value :  2.27501e-05
 Reference value :  2.27502e-05
 Reference value :  2.27503e-05
 Reference value :  2.27505e-05
 Reference value :  2.27515e-05
 Reference value :  2.27531e-05
 Reference value :  2.27544e-05
 Reference value :  2.27557e-05
 Reference value :  2.27573e-05
 Reference value :  2.27646e-05
 Reference value :  2.28057e-05
 Reference value :  2.30000e-05
 Reference value :  2.30011e-05
 Reference value :  2.30043e-05
 Reference value :  2.30063e-05
 Reference value :  2.30080e-05
 Reference value :  2.30106e-05
 Reference value :  2.30134e-05
 Reference value :  2.30145e-05
 Reference value :  2.30166e-05
 Reference value :  2.30188e-05
 Reference value :  2.30219e-05
 Reference value :  2.30271e-05
 Reference value :  2.30366e-05
 Reference value :  2.30424e-05
 Reference value :  2.30505e-05
 Reference value :  2.30613e-05
 Reference value :  2.31011e-05
 Reference value :  2.32501e-05
 Reference value :  2.32502e-05
 Reference value :  2.32502e-05
 Reference value :  2.32504e-05
 Reference value :  2.32507e-05
 Reference value :  2.32511e-05
 Reference value :  2.32515e-05
 Reference value :  2.32524e-05
 Reference value :  2.32537e-05
 Reference value :  2.32542e-05
 Reference value :  2.32554e-05
 Reference value :  2.32569e-05
 Reference value :  2.32633e-05
 Reference value :  2.32927e-05
 Reference value :  2.34241e-05
 Reference value :  2.34641e-05
 Reference value :  2.35000e-05
 Reference value :  2.35001e-05
 Reference value :  2.35002e-05
 Reference value :  2.35006e-05
 Reference value :  2.35015e-05
 Reference value :  2.35024e-05
 Reference value :  2.35035e-05
 Reference value :  2.35049e-05
 Reference value :  2.35064e-05
 Reference value :  2.35083e-05
 Reference value :  2.35113e-05
 Reference value :  2.35189e-05
 Reference value :  2.35698e-05
 Reference value :  2.37501e-05
 Reference value :  2.37502e-05
 Reference value :  2.37502e-05
 Reference value :  2.37503e-05
 Reference value :  2.37507e-05
 Reference value :  2.37519e-05
 Reference value :  2.37538e-05
 Reference value :  2.37544e-05
 Reference value :  2.37557e-05
 Reference value :  2.37573e-05
 Reference value :  2.37646e-05
 Reference value :  2.38059e-05
 Reference value :  2.40000e-05
 Reference value :  2.40001e-05
 Reference value :  2.40001e-05
 Reference value :  2.40003e-05
 Reference value :  2.40009e-05
 Reference value :  2.40020e-05
 Reference value :  2.40024e-05
 Reference value :  2.40035e-05
 Reference value :  2.40047e-05
 Reference value :  2.40059e-05
 Reference value :  2.40087e-05
 Reference value :  2.40119e-05
 Reference value :  2.40134e-05
 Reference value :  2.40144e-05
 Reference value :  2.40163e-05
 Reference value :  2.40188e-05
 Reference value :  2.40221e-05
 Reference value :  2.40279e-05
 Reference value :  2.40366e-05
 Reference value :  2.40440e-05
 Reference value :  2.40559e-05
 Reference value :  2.40694e-05
 Reference value :  2.41100e-05
 Reference value :  2.41990e-05
 Reference value :  2.42501e-05
 Reference value :  2.42502e-05
 Reference value :  2.42503e-05
 Reference value :  2.42505e-05
 Reference value :  2.42510e-05
 Reference value :  2.42519e-05
 Reference value :  2.42537e-05
 Reference value :  2.42549e-05
 Reference value :  2.42564e-05
 Reference value :  2.42611e-05
 Reference value :  2.42823e-05
 Reference value :  2.45000e-05
 Reference value :  2.45001e-05
 Reference value :  2.45002e-05
 Reference value :  2.45006e-05
 Reference value :  2.45020e-05
 Reference value :  2.45029e-05
 Reference value :  2.45041e-05
 Reference value :  2.45056e-05
 Reference value :  2.45074e-05
 Reference value :  2.45093e-05
 Reference value :  2.45114e-05
 Reference value :  2.45151e-05
 Reference value :  2.45255e-05
 Reference value :  2.46016e-05
 Reference value :  2.47501e-05
 Reference value :  2.47502e-05
 Reference value :  2.47503e-05
 Reference value :  2.47505e-05
 Reference value :  2.47515e-05
 Reference value :  2.47524e-05
 Reference value :  2.47538e-05
 Reference value :  2.47550e-05
 Reference value :  2.47564e-05
 Reference value :  2.47581e-05
 Reference value :  2.47619e-05
 Reference value :  2.47729e-05
 Reference value :  2.48166e-05
 Reference value :  2.50000e-05
 Reference value :  2.50001e-05
 Reference value :  2.50002e-05
 Reference value :  2.50006e-05
 Reference value :  2.50015e-05
 Reference value :  2.50024e-05
 Reference value :  2.50035e-05
 Reference value :  2.50046e-05
 Reference value :  2.50058e-05
 Reference value :  2.50082e-05
 Reference value :  2.50097e-05
 Reference value :  2.50114e-05
 Reference value :  2.50168e-05
 Reference value :  2.50270e-05
 Reference value :  2.50410e-05
 Reference value :  2.50579e-05
 Reference value :  2.50865e-05
 Reference value :  2.51391e-05
 Reference value :  2.52501e-05
 Reference value :  2.52502e-05
 Reference value :  2.52502e-05
 Reference value :  2.52504e-05
 Reference value :  2.52512e-05
 Reference value :  2.52521e-05
 Reference value :  2.52533e-05
 Reference value :  2.52550e-05
 Reference value :  2.52569e-05
 Reference value :  2.52602e-05
 Reference value :  2.52778e-05
 Reference value :  2.54096e-05
 Reference value :  2.55015e-05
 Reference value :  2.55046e-05
 Reference value :  2.55061e-05
 Reference value :  2.55093e-05
 Reference value :  2.55164e-05
 Reference value :  2.55255e-05
 Reference value :  2.55289e-05
 Reference value :  2.55316e-05
 Reference value :  2.55340e-05
 Reference value :  2.55359e-05
 Reference value :  2.55374e-05
 Reference value :  2.55403e-05
 Reference value :  2.55450e-05
 Reference value :  2.55519e-05
 Reference value :  2.55591e-05
 Reference value :  2.55822e-05
 Reference value :  2.56220e-05
 Reference value :  2.57064e-05
 Reference value :  2.57501e-05
 Reference value :  2.57502e-05
 Reference value :  2.57502e-05
 Reference value :  2.57504e-05
 Reference value :  2.57513e-05
 Reference value :  2.57521e-05
 Reference value :  2.57535e-05
 Reference value :  2.57540e-05
 Reference value :  2.57552e-05
 Reference value :  2.57559e-05
 Reference value :  2.57601e-05
 Reference value :  2.57759e-05
 Reference value :  2.60000e-05
 Reference value :  2.60001e-05
 Reference value :  2.60001e-05
 Reference value :  2.60003e-05
 Reference value :  2.60009e-05
 Reference value :  2.60023e-05
 Reference value :  2.60033e-05
 Reference value :  2.60045e-05
 Reference value :  2.60064e-05
 Reference value :  2.60075e-05
 Reference value :  2.60099e-05
 Reference value :  2.60125e-05
 Reference value :  2.60137e-05
 Reference value :  2.60192e-05
 Reference value :  2.60349e-05
 Reference value :  2.61135e-05
 Reference value :  2.62501e-05
 Reference value :  2.62502e-05
 Reference value :  2.62503e-05
 Reference value :  2.62506e-05
 Reference value :  2.62517e-05
 Reference value :  2.62527e-05
 Reference value :  2.62540e-05
 Reference value :  2.62560e-05
 Reference value :  2.62602e-05
 Reference value :  2.62922e-05
 Reference value :  2.65021e-05
 Reference value :  2.65084e-05
 Reference value :  2.65122e-05
 Reference value :  2.65136e-05
 Reference value :  2.65161e-05
 Reference value :  2.65189e-05
 Reference value :  2.65300e-05
 Reference value :  2.65723e-05
 Reference value :  2.66946e-05
 Reference value :  2.67501e-05
 Reference value :  2.67501e-05
 Reference value :  2.67502e-05
 Reference value :  2.67503e-05
 Reference value :  2.67506e-05
 Reference value :  2.67517e-05
 Reference value :  2.67527e-05
 Reference value :  2.67536e-05
 Reference value :  2.67546e-05
 Reference value :  2.67559e-05
 Reference value :  2.67600e-05
 Reference value :  2.67735e-05
 Reference value :  2.67936e-05
 Reference value :  2.68091e-05
 Reference value :  2.68262e-05
 Reference value :  2.69494e-05
 Reference value :  2.70000e-05
 Reference value :  2.70001e-05
 Reference value :  2.70002e-05
 Reference value :  2.70005e-05
 Reference value :  2.70013e-05
 Reference value :  2.70022e-05
 Reference value :  2.70032e-05
 Reference value :  2.70044e-05
 Reference value :  2.70052e-05
 Reference value :  2.70067e-05
 Reference value :  2.70083e-05
 Reference value :  2.70115e-05
 Reference value :  2.70256e-05
 Reference value :  2.71358e-05
 Reference value :  2.72501e-05
 Reference value :  2.72502e-05
 Reference value :  2.72503e-05
 Reference value :  2.72508e-05
 Reference value :  2.72517e-05
 Reference value :  2.72535e-05
 Reference value :  2.72540e-05
 Reference value :  2.72560e-05
 Reference value :  2.72576e-05
 Reference value :  2.72598e-05
 Reference value :  2.72667e-05
 Reference value :  2.73164e-05
 Reference value :  2.75000e-05
 Reference value :  2.75001e-05
 Reference value :  2.75001e-05
 Reference value :  2.75003e-05
 Reference value :  2.75009e-05
 Reference value :  2.75018e-05
 Reference value :  2.75033e-05
 Reference value :  2.75046e-05
 Reference value :  2.75058e-05
 Reference value :  2.75083e-05
 Reference value :  2.75105e-05
 Reference value :  2.75115e-05
 Reference value :  2.75135e-05
 Reference value :  2.75153e-05
 Reference value :  2.75173e-05
 Reference value :  2.75196e-05
 Reference value :  2.75271e-05
 Reference value :  2.75306e-05
 Reference value :  2.75357e-05
 Reference value :  2.75401e-05
 Reference value :  2.75539e-05
 Reference value :  2.75844e-05
 Reference value :  2.76790e-05
 Reference value :  2.77501e-05
 Reference value :  2.77502e-05
 Reference value :  2.77503e-05
 Reference value :  2.77504e-05
 Reference value :  2.77513e-05
 Reference value :  2.77521e-05
 Reference value :  2.77535e-05
 Reference value :  2.77540e-05
 Reference value :  2.77552e-05
 Reference value :  2.77568e-05
 Reference value :  2.77631e-05
 Reference value :  2.77940e-05
 Reference value :  2.80020e-05
 Reference value :  2.80059e-05
 Reference value :  2.80079e-05
 Reference value :  2.80122e-05
 Reference value :  2.80163e-05
 Reference value :  2.80279e-05
 Reference value :  2.80914e-05
 Reference value :  2.82501e-05
 Reference value :  2.82502e-05
 Reference value :  2.82503e-05
 Reference value :  2.82506e-05
 Reference value :  2.82513e-05
 Reference value :  2.82521e-05
 Reference value :  2.82532e-05
 Reference value :  2.82536e-05
 Reference value :  2.82547e-05
 Reference value :  2.82560e-05
 Reference value :  2.82601e-05
 Reference value :  2.82760e-05
 Reference value :  2.83971e-05
 Reference value :  2.85000e-05
 Reference value :  2.85001e-05
 Reference value :  2.85002e-05
 Reference value :  2.85009e-05
 Reference value :  2.85023e-05
 Reference value :  2.85033e-05
 Reference value :  2.85045e-05
 Reference value :  2.85059e-05
 Reference value :  2.85085e-05
 Reference value :  2.85101e-05
 Reference value :  2.85128e-05
 Reference value :  2.85138e-05
 Reference value :  2.85158e-05
 Reference value :  2.85179e-05
 Reference value :  2.85224e-05
 Reference value :  2.85384e-05
 Reference value :  2.86177e-05
 Reference value :  2.87501e-05
 Reference value :  2.87502e-05
 Reference value :  2.87502e-05
 Reference value :  2.87504e-05
 Reference value :  2.87513e-05
 Reference value :  2.87521e-05
 Reference value :  2.87535e-05
 Reference value :  2.87546e-05
 Reference value :  2.87560e-05
 Reference value :  2.87602e-05
 Reference value :  2.87942e-05
 Reference value :  2.90000e-05
 Reference value :  2.90020e-05
 Reference value :  2.90079e-05
 Reference value :  2.90122e-05
 Reference value :  2.90163e-05
 Reference value :  2.90360e-05
 Reference value :  2.90946e-05
 Reference value :  2.92501e-05
 Reference value :  2.92502e-05
 Reference value :  2.92502e-05
 Reference value :  2.92504e-05
 Reference value :  2.92513e-05
 Reference value :  2.92521e-05
 Reference value :  2.92532e-05
 Reference value :  2.92536e-05
 Reference value :  2.92547e-05
 Reference value :  2.92560e-05
 Reference value :  2.92601e-05
 Reference value :  2.92760e-05
 Reference value :  2.93974e-05
 Reference value :  2.95000e-05
 Reference value :  2.95001e-05
 Reference value :  2.95002e-05
 Reference value :  2.95009e-05
 Reference value :  2.95018e-05
 Reference value :  2.95033e-05
 Reference value :  2.95045e-05
 Reference value :  2.95059e-05
 Reference value :  2.95085e-05
 Reference value :  2.95101e-05
 Reference value :  2.95129e-05
 Reference value :  2.95139e-05
 Reference value :  2.95161e-05
 Reference value :  2.95182e-05
 Reference value :  2.95230e-05
 Reference value :  2.95401e-05
 Reference value :  2.95501e-05
 Reference value :  2.95663e-05
 Reference value :  2.95721e-05
 Reference value :  2.95841e-05
 Reference value :  2.95903e-05
 Reference value :  2.95947e-05
 Reference value :  2.96110e-05
 Reference value :  2.96714e-05
 Reference value :  2.97501e-05
 Reference value :  2.97502e-05
 Reference value :  2.97504e-05
 Reference value :  2.97510e-05
 Reference value :  2.97524e-05
 Reference value :  2.97538e-05
 Reference value :  2.97550e-05
 Reference value :  2.97565e-05
 Reference value :  2.97614e-05
 Reference value :  2.97853e-05
 Reference value :  2.99742e-05
 Reference value :  3.00000e-05
 Reference value :  3.00001e-05
 Reference value :  3.00002e-05
 Reference value :  3.00009e-05
 Reference value :  3.00024e-05
 Reference value :  3.00035e-05
 Reference value :  3.00049e-05
 Reference value :  3.00064e-05
 Reference value :  3.00083e-05
 Reference value :  3.00102e-05
 Reference value :  3.00125e-05
 Reference value :  3.00425e-05
 Reference value :  3.02493e-05
 Reference value :  3.02501e-05
 Reference value :  3.02502e-05
 Reference value :  3.02503e-05
 Reference value :  3.02505e-05
 Reference value :  3.02515e-05
 Reference value :  3.02531e-05
 Reference value :  3.02544e-05
 Reference value :  3.02564e-05
 Reference value :  3.02646e-05
 Reference value :  3.03512e-05
 Reference value :  3.05010e-05
 Reference value :  3.05039e-05
 Reference value :  3.05058e-05
 Reference value :  3.05088e-05
 Reference value :  3.05103e-05
 Reference value :  3.05117e-05
 Reference value :  3.05141e-05
 Reference value :  3.05163e-05
 Reference value :  3.05184e-05
 Reference value :  3.05230e-05
 Reference value :  3.05356e-05
 Reference value :  3.05482e-05
 Reference value :  3.05589e-05
 Reference value :  3.05652e-05
 Reference value :  3.05844e-05
 Reference value :  3.06251e-05
 Reference value :  3.06449e-05
 Reference value :  3.06613e-05
 Reference value :  3.07442e-05
 Reference value :  3.07501e-05
 Reference value :  3.07502e-05
 Reference value :  3.07503e-05
 Reference value :  3.07505e-05
 Reference value :  3.07509e-05
 Reference value :  3.07515e-05
 Reference value :  3.07524e-05
 Reference value :  3.07543e-05
 Reference value :  3.07562e-05
 Reference value :  3.07607e-05
 Reference value :  3.07791e-05
 Reference value :  3.08778e-05
 Reference value :  3.10000e-05
 Reference value :  3.10001e-05
 Reference value :  3.10002e-05
 Reference value :  3.10006e-05
 Reference value :  3.10015e-05
 Reference value :  3.10024e-05
 Reference value :  3.10035e-05
 Reference value :  3.10049e-05
 Reference value :  3.10064e-05
 Reference value :  3.10083e-05
 Reference value :  3.10113e-05
 Reference value :  3.10190e-05
 Reference value :  3.10718e-05
 Reference value :  3.12501e-05
 Reference value :  3.12502e-05
 Reference value :  3.12502e-05
 Reference value :  3.12504e-05
 Reference value :  3.12510e-05
 Reference value :  3.12519e-05
 Reference value :  3.12531e-05
 Reference value :  3.12544e-05
 Reference value :  3.12564e-05
 Reference value :  3.12612e-05
 Reference value :  3.13057e-05
 Reference value :  3.15000e-05
 Reference value :  3.15000e-05
 Reference value :  3.15001e-05
 Reference value :  3.15006e-05
 Reference value :  3.15020e-05
 Reference value :  3.15030e-05
 Reference value :  3.15035e-05
 Reference value :  3.15047e-05
 Reference value :  3.15066e-05
 Reference value :  3.15087e-05
 Reference value :  3.15119e-05
 Reference value :  3.15144e-05
 Reference value :  3.15164e-05
 Reference value :  3.15188e-05
 Reference value :  3.15249e-05
 Reference value :  3.15384e-05
 Reference value :  3.15475e-05
 Reference value :  3.15645e-05
 Reference value :  3.15893e-05
 Reference value :  3.17051e-05
 Reference value :  3.17501e-05
 Reference value :  3.17502e-05
 Reference value :  3.17503e-05
 Reference value :  3.17507e-05
 Reference value :  3.17519e-05
 Reference value :  3.17538e-05
 Reference value :  3.17549e-05
 Reference value :  3.17564e-05
 Reference value :  3.17589e-05
 Reference value :  3.17705e-05
 Reference value :  3.18423e-05
 Reference value :  3.18899e-05
 Reference value :  3.19386e-05
 Reference value :  3.20000e-05
 Reference value :  3.20001e-05
 Reference value :  3.20001e-05
 Reference value :  3.20003e-05
 Reference value :  3.20015e-05
 Reference value :  3.20024e-05
 Reference value :  3.20035e-05
 Reference value :  3.20049e-05
 Reference value :  3.20064e-05
 Reference value :  3.20083e-05
 Reference value :  3.20102e-05
 Reference value :  3.20113e-05
 Reference value :  3.20188e-05
 Reference value :  3.20413e-05
 Reference value :  3.21752e-05
 Reference value :  3.22501e-05
 Reference value :  3.22502e-05
 Reference value :  3.22503e-05
 Reference value :  3.22505e-05
 Reference value :  3.22515e-05
 Reference value :  3.22524e-05
 Reference value :  3.22538e-05
 Reference value :  3.22550e-05
 Reference value :  3.22564e-05
 Reference value :  3.22612e-05
 Reference value :  3.23057e-05
 Reference value :  3.25000e-05
 Reference value :  3.25001e-05
 Reference value :  3.25002e-05
 Reference value :  3.25003e-05
 Reference value :  3.25009e-05
 Reference value :  3.25024e-05
 Reference value :  3.25035e-05
 Reference value :  3.25047e-05
 Reference value :  3.25059e-05
 Reference value :  3.25087e-05
 Reference value :  3.25119e-05
 Reference value :  3.25134e-05
 Reference value :  3.25144e-05
 Reference value :  3.25163e-05
 Reference value :  3.25188e-05
 Reference value :  3.25279e-05
 Reference value :  3.25366e-05
 Reference value :  3.25439e-05
 Reference value :  3.25624e-05
 Reference value :  3.25913e-05
 Reference value :  3.26982e-05
 Reference value :  3.27501e-05
 Reference value :  3.27502e-05
 Reference value :  3.27503e-05
 Reference value :  3.27507e-05
 Reference value :  3.27514e-05
 Reference value :  3.27524e-05
 Reference value :  3.27538e-05
 Reference value :  3.27549e-05
 Reference value :  3.27564e-05
 Reference value :  3.27589e-05
 Reference value :  3.27705e-05
 Reference value :  3.29225e-05
 Reference value :  3.30000e-05
 Reference value :  3.30001e-05
 Reference value :  3.30002e-05
 Reference value :  3.30006e-05
 Reference value :  3.30015e-05
 Reference value :  3.30024e-05
 Reference value :  3.30035e-05
 Reference value :  3.30056e-05
 Reference value :  3.30074e-05
 Reference value :  3.30093e-05
 Reference value :  3.30114e-05
 Reference value :  3.30376e-05
 Reference value :  3.32501e-05
 Reference value :  3.32502e-05
 Reference value :  3.32503e-05
 Reference value :  3.32505e-05
 Reference value :  3.32515e-05
 Reference value :  3.32524e-05
 Reference value :  3.32538e-05
 Reference value :  3.32544e-05
 Reference value :  3.32557e-05
 Reference value :  3.32564e-05
 Reference value :  3.32581e-05
 Reference value :  3.32603e-05
 Reference value :  3.32729e-05
 Reference value :  3.33516e-05
 Reference value :  3.35013e-05
 Reference value :  3.35052e-05
 Reference value :  3.35077e-05
 Reference value :  3.35111e-05
 Reference value :  3.35134e-05
 Reference value :  3.35207e-05
 Reference value :  3.35347e-05
 Reference value :  3.35531e-05
 Reference value :  3.35680e-05
 Reference value :  3.35936e-05
 Reference value :  3.36245e-05
 Reference value :  3.37061e-05
 Reference value :  3.37501e-05
 Reference value :  3.37502e-05
 Reference value :  3.37503e-05
 Reference value :  3.37506e-05
 Reference value :  3.37510e-05
 Reference value :  3.37523e-05
 Reference value :  3.37537e-05
 Reference value :  3.37563e-05
 Reference value :  3.37591e-05
 Reference value :  3.37695e-05
 Reference value :  3.38084e-05
 Reference value :  3.40000e-05
No. of Data Rows : 4786
ngspice-44 done
