
Note: Compatibility modes selected: hs a


Circuit: ** sch_path: /home/audrey/cace/sar-adc-using-sky130-pdk/runs/run_2025-09-09_17-05-16/parameters/power/run_4/power_consumption.sch

option SCALE: Scale is set to 1e-06 for instance and model parameters
option SCALE: Scale is set to 1e-06 for instance and model parameters
option SCALE: Scale is set to 1e-06 for instance and model parameters
option SCALE: Scale is set to 1e-06 for instance and model parameters
Doing analysis at TEMP = 27.000000 and TNOM = 27.000000

Using KLU as Direct Linear Solver
 Reference value :  0.00000e+00
 Reference value :  1.00000e-12
 Reference value :  2.00000e-12
 Reference value :  4.00000e-12
 Reference value :  8.00000e-12
 Reference value :  1.60000e-11
 Reference value :  3.20000e-11
 Reference value :  6.40000e-11
 Reference value :  1.00000e-10
 Reference value :  1.01503e-10
 Reference value :  1.04508e-10
 Reference value :  1.10520e-10
 Reference value :  1.22542e-10
 Reference value :  1.46587e-10
 Reference value :  1.94676e-10
 Reference value :  2.90855e-10
 Reference value :  4.40082e-10
 Reference value :  7.34071e-10
 Reference value :  1.08266e-09
 Reference value :  1.60983e-09
 Reference value :  2.19771e-09
 Reference value :  2.78298e-09
 Reference value :  3.47574e-09
 Reference value :  4.23112e-09
 Reference value :  4.88678e-09
 Reference value :  5.59823e-09
 Reference value :  6.32099e-09
 Reference value :  6.98844e-09
 Reference value :  7.86632e-09
 Reference value :  8.79338e-09
 Reference value :  9.83172e-09
 Reference value :  1.09902e-08
 Reference value :  1.23367e-08
 Reference value :  1.37025e-08
 Reference value :  1.50161e-08
 Reference value :  1.61404e-08
 Reference value :  1.73438e-08
 Reference value :  1.86686e-08
 Reference value :  2.02646e-08
 Reference value :  2.27806e-08
 Reference value :  2.47347e-08
 Reference value :  2.72699e-08
 Reference value :  3.01256e-08
 Reference value :  3.30950e-08
 Reference value :  3.58565e-08
 Reference value :  3.83138e-08
 Reference value :  3.94857e-08
 Reference value :  4.06432e-08
 Reference value :  4.18710e-08
 Reference value :  4.33039e-08
 Reference value :  4.52986e-08
 Reference value :  4.79454e-08
 Reference value :  5.13540e-08
 Reference value :  5.50608e-08
 Reference value :  5.98012e-08
 Reference value :  6.42577e-08
 Reference value :  7.27434e-08
 Reference value :  8.51895e-08
 Reference value :  1.08454e-07
 Reference value :  1.34597e-07
 Reference value :  1.76002e-07
 Reference value :  2.27591e-07
 Reference value :  2.50100e-07
 Reference value :  2.50110e-07
 Reference value :  2.50130e-07
 Reference value :  2.50170e-07
 Reference value :  2.50200e-07
 Reference value :  2.50201e-07
 Reference value :  2.50202e-07
 Reference value :  2.50204e-07
 Reference value :  2.50208e-07
 Reference value :  2.50216e-07
 Reference value :  2.50233e-07
 Reference value :  2.50266e-07
 Reference value :  2.50332e-07
 Reference value :  2.50408e-07
 Reference value :  2.50561e-07
 Reference value :  2.50726e-07
 Reference value :  2.51016e-07
 Reference value :  2.51373e-07
 Reference value :  2.51883e-07
 Reference value :  2.52424e-07
 Reference value :  2.53057e-07
 Reference value :  2.53912e-07
 Reference value :  2.54654e-07
 Reference value :  2.55470e-07
 Reference value :  2.56240e-07
 Reference value :  2.57104e-07
 Reference value :  2.57931e-07
 Reference value :  2.59352e-07
 Reference value :  2.61247e-07
 Reference value :  2.63519e-07
 Reference value :  2.67031e-07
 Reference value :  2.72214e-07
 Reference value :  2.82582e-07
 Reference value :  3.03316e-07
 Reference value :  3.43308e-07
 Reference value :  4.23293e-07
 Reference value :  5.00000e-07
 Reference value :  5.00010e-07
 Reference value :  5.00030e-07
 Reference value :  5.00070e-07
 Reference value :  5.00100e-07
 Reference value :  5.00104e-07
 Reference value :  5.00113e-07
 Reference value :  5.00130e-07
 Reference value :  5.00163e-07
 Reference value :  5.00231e-07
 Reference value :  5.00366e-07
 Reference value :  5.00553e-07
 Reference value :  5.00927e-07
 Reference value :  5.01510e-07
 Reference value :  5.02041e-07
 Reference value :  5.02610e-07
 Reference value :  5.03289e-07
 Reference value :  5.04081e-07
 Reference value :  5.04830e-07
 Reference value :  5.05643e-07
 Reference value :  5.06667e-07
 Reference value :  5.07756e-07
 Reference value :  5.09485e-07
 Reference value :  5.12228e-07
 Reference value :  5.14064e-07
 Reference value :  5.16139e-07
 Reference value :  5.18400e-07
 Reference value :  5.20772e-07
 Reference value :  5.23518e-07
 Reference value :  5.28107e-07
 Reference value :  5.34706e-07
 Reference value :  5.45944e-07
 Reference value :  5.65406e-07
 Reference value :  5.98455e-07
 Reference value :  6.58400e-07
 Reference value :  7.50100e-07
 Reference value :  7.50110e-07
 Reference value :  7.50130e-07
 Reference value :  7.50170e-07
 Reference value :  7.50200e-07
 Reference value :  7.50201e-07
 Reference value :  7.50202e-07
 Reference value :  7.50205e-07
 Reference value :  7.50211e-07
 Reference value :  7.50223e-07
 Reference value :  7.50247e-07
 Reference value :  7.50295e-07
 Reference value :  7.50390e-07
 Reference value :  7.50580e-07
 Reference value :  7.50954e-07
 Reference value :  7.51429e-07
 Reference value :  7.51992e-07
 Reference value :  7.52594e-07
 Reference value :  7.53250e-07
 Reference value :  7.54105e-07
 Reference value :  7.54725e-07
 Reference value :  7.55452e-07
 Reference value :  7.56121e-07
 Reference value :  7.56854e-07
 Reference value :  7.57766e-07
 Reference value :  7.58759e-07
 Reference value :  7.60745e-07
 Reference value :  7.62904e-07
 Reference value :  7.66530e-07
 Reference value :  7.71126e-07
 Reference value :  7.80318e-07
 Reference value :  7.98703e-07
 Reference value :  8.35471e-07
 Reference value :  9.09009e-07
 Reference value :  1.00000e-06
 Reference value :  1.00001e-06
 Reference value :  1.00003e-06
 Reference value :  1.00007e-06
 Reference value :  1.00010e-06
 Reference value :  1.00010e-06
 Reference value :  1.00011e-06
 Reference value :  1.00013e-06
 Reference value :  1.00016e-06
 Reference value :  1.00023e-06
 Reference value :  1.00036e-06
 Reference value :  1.00055e-06
 Reference value :  1.00092e-06
 Reference value :  1.00145e-06
 Reference value :  1.00198e-06
 Reference value :  1.00255e-06
 Reference value :  1.00322e-06
 Reference value :  1.00397e-06
 Reference value :  1.00472e-06
 Reference value :  1.00541e-06
 Reference value :  1.00613e-06
 Reference value :  1.00694e-06
 Reference value :  1.00770e-06
 Reference value :  1.00853e-06
 Reference value :  1.00971e-06
 Reference value :  1.01103e-06
 Reference value :  1.01329e-06
 Reference value :  1.01571e-06
 Reference value :  1.01765e-06
 Reference value :  1.01939e-06
 Reference value :  1.02066e-06
 Reference value :  1.02205e-06
 Reference value :  1.02362e-06
 Reference value :  1.02518e-06
 Reference value :  1.02702e-06
 Reference value :  1.02974e-06
 Reference value :  1.03262e-06
 Reference value :  1.03656e-06
 Reference value :  1.03946e-06
 Reference value :  1.04272e-06
 Reference value :  1.04521e-06
 Reference value :  1.04848e-06
 Reference value :  1.05290e-06
 Reference value :  1.05590e-06
 Reference value :  1.05925e-06
 Reference value :  1.06280e-06
 Reference value :  1.06675e-06
 Reference value :  1.07268e-06
 Reference value :  1.07949e-06
 Reference value :  1.08563e-06
 Reference value :  1.09347e-06
 Reference value :  1.10188e-06
 Reference value :  1.11808e-06
 Reference value :  1.14267e-06
 Reference value :  1.18103e-06
 Reference value :  1.25010e-06
 Reference value :  1.25011e-06
 Reference value :  1.25013e-06
 Reference value :  1.25017e-06
 Reference value :  1.25020e-06
 Reference value :  1.25020e-06
 Reference value :  1.25020e-06
 Reference value :  1.25021e-06
 Reference value :  1.25021e-06
 Reference value :  1.25022e-06
 Reference value :  1.25025e-06
 Reference value :  1.25029e-06
 Reference value :  1.25039e-06
 Reference value :  1.25058e-06
 Reference value :  1.25091e-06
 Reference value :  1.25141e-06
 Reference value :  1.25204e-06
 Reference value :  1.25262e-06
 Reference value :  1.25330e-06
 Reference value :  1.25413e-06
 Reference value :  1.25472e-06
 Reference value :  1.25540e-06
 Reference value :  1.25624e-06
 Reference value :  1.25722e-06
 Reference value :  1.25822e-06
 Reference value :  1.26022e-06
 Reference value :  1.26213e-06
 Reference value :  1.26532e-06
 Reference value :  1.26917e-06
 Reference value :  1.27688e-06
 Reference value :  1.29231e-06
 Reference value :  1.32315e-06
 Reference value :  1.38484e-06
 Reference value :  1.50000e-06
 Reference value :  1.50001e-06
 Reference value :  1.50003e-06
 Reference value :  1.50007e-06
 Reference value :  1.50010e-06
 Reference value :  1.50010e-06
 Reference value :  1.50011e-06
 Reference value :  1.50013e-06
 Reference value :  1.50016e-06
 Reference value :  1.50023e-06
 Reference value :  1.50037e-06
 Reference value :  1.50054e-06
 Reference value :  1.50090e-06
 Reference value :  1.50140e-06
 Reference value :  1.50191e-06
 Reference value :  1.50242e-06
 Reference value :  1.50304e-06
 Reference value :  1.50370e-06
 Reference value :  1.50457e-06
 Reference value :  1.50538e-06
 Reference value :  1.50630e-06
 Reference value :  1.50760e-06
 Reference value :  1.50904e-06
 Reference value :  1.51043e-06
 Reference value :  1.51184e-06
 Reference value :  1.51314e-06
 Reference value :  1.51457e-06
 Reference value :  1.51598e-06
 Reference value :  1.51762e-06
 Reference value :  1.52090e-06
 Reference value :  1.52654e-06
 Reference value :  1.53729e-06
 Reference value :  1.55880e-06
 Reference value :  1.60181e-06
 Reference value :  1.68784e-06
 Reference value :  1.75010e-06
 Reference value :  1.75011e-06
 Reference value :  1.75013e-06
 Reference value :  1.75017e-06
 Reference value :  1.75020e-06
 Reference value :  1.75020e-06
 Reference value :  1.75020e-06
 Reference value :  1.75021e-06
 Reference value :  1.75021e-06
 Reference value :  1.75022e-06
 Reference value :  1.75025e-06
 Reference value :  1.75029e-06
 Reference value :  1.75039e-06
 Reference value :  1.75058e-06
 Reference value :  1.75091e-06
 Reference value :  1.75141e-06
 Reference value :  1.75204e-06
 Reference value :  1.75262e-06
 Reference value :  1.75330e-06
 Reference value :  1.75415e-06
 Reference value :  1.75475e-06
 Reference value :  1.75545e-06
 Reference value :  1.75614e-06
 Reference value :  1.75687e-06
 Reference value :  1.75785e-06
 Reference value :  1.75890e-06
 Reference value :  1.76008e-06
 Reference value :  1.76151e-06
 Reference value :  1.76361e-06
 Reference value :  1.76564e-06
 Reference value :  1.76927e-06
 Reference value :  1.77380e-06
 Reference value :  1.78287e-06
 Reference value :  1.80101e-06
 Reference value :  1.83728e-06
 Reference value :  1.90983e-06
 Reference value :  2.00000e-06
 Reference value :  2.00001e-06
 Reference value :  2.00003e-06
 Reference value :  2.00007e-06
 Reference value :  2.00010e-06
 Reference value :  2.00010e-06
 Reference value :  2.00011e-06
 Reference value :  2.00013e-06
 Reference value :  2.00016e-06
 Reference value :  2.00023e-06
 Reference value :  2.00036e-06
 Reference value :  2.00054e-06
 Reference value :  2.00089e-06
 Reference value :  2.00139e-06
 Reference value :  2.00190e-06
 Reference value :  2.00243e-06
 Reference value :  2.00309e-06
 Reference value :  2.00375e-06
 Reference value :  2.00452e-06
 Reference value :  2.00515e-06
 Reference value :  2.00585e-06
 Reference value :  2.00653e-06
 Reference value :  2.00722e-06
 Reference value :  2.00797e-06
 Reference value :  2.00886e-06
 Reference value :  2.00988e-06
 Reference value :  2.01149e-06
 Reference value :  2.01378e-06
 Reference value :  2.01532e-06
 Reference value :  2.01706e-06
 Reference value :  2.01870e-06
 Reference value :  2.01995e-06
 Reference value :  2.02112e-06
 Reference value :  2.02220e-06
 Reference value :  2.02346e-06
 Reference value :  2.02497e-06
 Reference value :  2.02645e-06
 Reference value :  2.02898e-06
 Reference value :  2.03199e-06
 Reference value :  2.03801e-06
 Reference value :  2.04932e-06
 Reference value :  2.06756e-06
 Reference value :  2.10404e-06
 Reference value :  2.14750e-06
 Reference value :  2.20462e-06
 Reference value :  2.25010e-06
 Reference value :  2.25011e-06
 Reference value :  2.25013e-06
 Reference value :  2.25017e-06
 Reference value :  2.25020e-06
 Reference value :  2.25020e-06
 Reference value :  2.25020e-06
 Reference value :  2.25021e-06
 Reference value :  2.25021e-06
 Reference value :  2.25022e-06
 Reference value :  2.25025e-06
 Reference value :  2.25029e-06
 Reference value :  2.25039e-06
 Reference value :  2.25058e-06
 Reference value :  2.25091e-06
 Reference value :  2.25141e-06
 Reference value :  2.25198e-06
 Reference value :  2.25258e-06
 Reference value :  2.25323e-06
 Reference value :  2.25406e-06
 Reference value :  2.25467e-06
 Reference value :  2.25538e-06
 Reference value :  2.25618e-06
 Reference value :  2.25700e-06
 Reference value :  2.25810e-06
 Reference value :  2.25979e-06
 Reference value :  2.26175e-06
 Reference value :  2.26451e-06
 Reference value :  2.26838e-06
 Reference value :  2.27610e-06
 Reference value :  2.29156e-06
 Reference value :  2.32247e-06
 Reference value :  2.38430e-06
 Reference value :  2.44068e-06
 Reference value :  2.50000e-06
 Reference value :  2.50001e-06
 Reference value :  2.50003e-06
 Reference value :  2.50007e-06
 Reference value :  2.50010e-06
 Reference value :  2.50010e-06
 Reference value :  2.50011e-06
 Reference value :  2.50013e-06
 Reference value :  2.50016e-06
 Reference value :  2.50023e-06
 Reference value :  2.50036e-06
 Reference value :  2.50054e-06
 Reference value :  2.50089e-06
 Reference value :  2.50139e-06
 Reference value :  2.50190e-06
 Reference value :  2.50240e-06
 Reference value :  2.50303e-06
 Reference value :  2.50367e-06
 Reference value :  2.50454e-06
 Reference value :  2.50535e-06
 Reference value :  2.50627e-06
 Reference value :  2.50760e-06
 Reference value :  2.50901e-06
 Reference value :  2.51044e-06
 Reference value :  2.51183e-06
 Reference value :  2.51311e-06
 Reference value :  2.51453e-06
 Reference value :  2.51592e-06
 Reference value :  2.51755e-06
 Reference value :  2.52081e-06
 Reference value :  2.52595e-06
 Reference value :  2.53623e-06
 Reference value :  2.55679e-06
 Reference value :  2.59791e-06
 Reference value :  2.68015e-06
 Reference value :  2.75010e-06
 Reference value :  2.75011e-06
 Reference value :  2.75013e-06
 Reference value :  2.75017e-06
 Reference value :  2.75020e-06
 Reference value :  2.75020e-06
 Reference value :  2.75020e-06
 Reference value :  2.75021e-06
 Reference value :  2.75021e-06
 Reference value :  2.75022e-06
 Reference value :  2.75025e-06
 Reference value :  2.75029e-06
 Reference value :  2.75039e-06
 Reference value :  2.75058e-06
 Reference value :  2.75091e-06
 Reference value :  2.75140e-06
 Reference value :  2.75198e-06
 Reference value :  2.75258e-06
 Reference value :  2.75323e-06
 Reference value :  2.75407e-06
 Reference value :  2.75468e-06
 Reference value :  2.75540e-06
 Reference value :  2.75605e-06
 Reference value :  2.75677e-06
 Reference value :  2.75767e-06
 Reference value :  2.75867e-06
 Reference value :  2.75970e-06
 Reference value :  2.76119e-06
 Reference value :  2.76285e-06
 Reference value :  2.76513e-06
 Reference value :  2.76796e-06
 Reference value :  2.77218e-06
 Reference value :  2.78062e-06
 Reference value :  2.79671e-06
 Reference value :  2.82887e-06
 Reference value :  2.89321e-06
 Reference value :  3.00000e-06
 Reference value :  3.00001e-06
 Reference value :  3.00003e-06
 Reference value :  3.00007e-06
 Reference value :  3.00010e-06
 Reference value :  3.00010e-06
 Reference value :  3.00011e-06
 Reference value :  3.00013e-06
 Reference value :  3.00016e-06
 Reference value :  3.00023e-06
 Reference value :  3.00036e-06
 Reference value :  3.00054e-06
 Reference value :  3.00089e-06
 Reference value :  3.00139e-06
 Reference value :  3.00190e-06
 Reference value :  3.00243e-06
 Reference value :  3.00309e-06
 Reference value :  3.00375e-06
 Reference value :  3.00452e-06
 Reference value :  3.00515e-06
 Reference value :  3.00585e-06
 Reference value :  3.00654e-06
 Reference value :  3.00723e-06
 Reference value :  3.00797e-06
 Reference value :  3.00889e-06
 Reference value :  3.00988e-06
 Reference value :  3.01155e-06
 Reference value :  3.01316e-06
 Reference value :  3.01461e-06
 Reference value :  3.01613e-06
 Reference value :  3.01769e-06
 Reference value :  3.01890e-06
 Reference value :  3.02006e-06
 Reference value :  3.02151e-06
 Reference value :  3.02289e-06
 Reference value :  3.02421e-06
 Reference value :  3.02586e-06
 Reference value :  3.02807e-06
 Reference value :  3.03034e-06
 Reference value :  3.03438e-06
 Reference value :  3.04008e-06
 Reference value :  3.04926e-06
 Reference value :  3.06449e-06
 Reference value :  3.08827e-06
 Reference value :  3.12601e-06
 Reference value :  3.16709e-06
 Reference value :  3.20034e-06
 Reference value :  3.23388e-06
 Reference value :  3.25010e-06
 Reference value :  3.25011e-06
 Reference value :  3.25013e-06
 Reference value :  3.25017e-06
 Reference value :  3.25020e-06
 Reference value :  3.25020e-06
 Reference value :  3.25020e-06
 Reference value :  3.25021e-06
 Reference value :  3.25021e-06
 Reference value :  3.25022e-06
 Reference value :  3.25025e-06
 Reference value :  3.25029e-06
 Reference value :  3.25039e-06
 Reference value :  3.25057e-06
 Reference value :  3.25090e-06
 Reference value :  3.25139e-06
 Reference value :  3.25202e-06
 Reference value :  3.25260e-06
 Reference value :  3.25328e-06
 Reference value :  3.25412e-06
 Reference value :  3.25472e-06
 Reference value :  3.25542e-06
 Reference value :  3.25629e-06
 Reference value :  3.25717e-06
 Reference value :  3.25824e-06
 Reference value :  3.26012e-06
 Reference value :  3.26204e-06
 Reference value :  3.26512e-06
 Reference value :  3.26899e-06
 Reference value :  3.27673e-06
 Reference value :  3.29220e-06
 Reference value :  3.32314e-06
 Reference value :  3.38502e-06
 Reference value :  3.50000e-06
 Reference value :  3.50001e-06
 Reference value :  3.50003e-06
 Reference value :  3.50007e-06
 Reference value :  3.50010e-06
 Reference value :  3.50010e-06
 Reference value :  3.50011e-06
 Reference value :  3.50013e-06
 Reference value :  3.50016e-06
 Reference value :  3.50023e-06
 Reference value :  3.50037e-06
 Reference value :  3.50054e-06
 Reference value :  3.50090e-06
 Reference value :  3.50140e-06
 Reference value :  3.50191e-06
 Reference value :  3.50242e-06
 Reference value :  3.50304e-06
 Reference value :  3.50370e-06
 Reference value :  3.50456e-06
 Reference value :  3.50535e-06
 Reference value :  3.50630e-06
 Reference value :  3.50743e-06
 Reference value :  3.50872e-06
 Reference value :  3.50987e-06
 Reference value :  3.51106e-06
 Reference value :  3.51250e-06
 Reference value :  3.51408e-06
 Reference value :  3.51569e-06
 Reference value :  3.51758e-06
 Reference value :  3.52102e-06
 Reference value :  3.52603e-06
 Reference value :  3.53570e-06
 Reference value :  3.55396e-06
 Reference value :  3.58776e-06
 Reference value :  3.65536e-06
 Reference value :  3.75010e-06
 Reference value :  3.75011e-06
 Reference value :  3.75013e-06
 Reference value :  3.75017e-06
 Reference value :  3.75020e-06
 Reference value :  3.75020e-06
 Reference value :  3.75020e-06
 Reference value :  3.75021e-06
 Reference value :  3.75021e-06
 Reference value :  3.75022e-06
 Reference value :  3.75025e-06
 Reference value :  3.75029e-06
 Reference value :  3.75039e-06
 Reference value :  3.75058e-06
 Reference value :  3.75091e-06
 Reference value :  3.75140e-06
 Reference value :  3.75198e-06
 Reference value :  3.75258e-06
 Reference value :  3.75322e-06
 Reference value :  3.75407e-06
 Reference value :  3.75469e-06
 Reference value :  3.75540e-06
 Reference value :  3.75605e-06
 Reference value :  3.75678e-06
 Reference value :  3.75767e-06
 Reference value :  3.75867e-06
 Reference value :  3.75970e-06
 Reference value :  3.76119e-06
 Reference value :  3.76286e-06
 Reference value :  3.76514e-06
 Reference value :  3.76798e-06
 Reference value :  3.77220e-06
 Reference value :  3.78066e-06
 Reference value :  3.79720e-06
 Reference value :  3.83027e-06
 Reference value :  3.89642e-06
 Reference value :  4.00000e-06
 Reference value :  4.00001e-06
 Reference value :  4.00003e-06
 Reference value :  4.00007e-06
 Reference value :  4.00010e-06
 Reference value :  4.00010e-06
 Reference value :  4.00011e-06
 Reference value :  4.00013e-06
 Reference value :  4.00016e-06
 Reference value :  4.00023e-06
 Reference value :  4.00036e-06
 Reference value :  4.00054e-06
 Reference value :  4.00089e-06
 Reference value :  4.00139e-06
 Reference value :  4.00190e-06
 Reference value :  4.00243e-06
 Reference value :  4.00309e-06
 Reference value :  4.00375e-06
 Reference value :  4.00452e-06
 Reference value :  4.00515e-06
 Reference value :  4.00584e-06
 Reference value :  4.00653e-06
 Reference value :  4.00720e-06
 Reference value :  4.00793e-06
 Reference value :  4.00888e-06
 Reference value :  4.00986e-06
 Reference value :  4.01133e-06
 Reference value :  4.01253e-06
 Reference value :  4.01383e-06
 Reference value :  4.01514e-06
 Reference value :  4.01658e-06
 Reference value :  4.01797e-06
 Reference value :  4.01900e-06
 Reference value :  4.02004e-06
 Reference value :  4.02126e-06
 Reference value :  4.02243e-06
 Reference value :  4.02363e-06
 Reference value :  4.02504e-06
 Reference value :  4.02697e-06
 Reference value :  4.02908e-06
 Reference value :  4.03251e-06
 Reference value :  4.03833e-06
 Reference value :  4.04676e-06
 Reference value :  4.06177e-06
 Reference value :  4.08521e-06
 Reference value :  4.10319e-06
 Reference value :  4.12353e-06
 Reference value :  4.13644e-06
 Reference value :  4.15171e-06
 Reference value :  4.17019e-06
 Reference value :  4.19120e-06
 Reference value :  4.23323e-06
 Reference value :  4.25010e-06
 Reference value :  4.25011e-06
 Reference value :  4.25013e-06
 Reference value :  4.25017e-06
 Reference value :  4.25020e-06
 Reference value :  4.25020e-06
 Reference value :  4.25020e-06
 Reference value :  4.25021e-06
 Reference value :  4.25021e-06
 Reference value :  4.25022e-06
 Reference value :  4.25025e-06
 Reference value :  4.25029e-06
 Reference value :  4.25039e-06
 Reference value :  4.25057e-06
 Reference value :  4.25090e-06
 Reference value :  4.25139e-06
 Reference value :  4.25202e-06
 Reference value :  4.25260e-06
 Reference value :  4.25328e-06
 Reference value :  4.25412e-06
 Reference value :  4.25472e-06
 Reference value :  4.25542e-06
 Reference value :  4.25629e-06
 Reference value :  4.25717e-06
 Reference value :  4.25824e-06
 Reference value :  4.26012e-06
 Reference value :  4.26204e-06
 Reference value :  4.26511e-06
 Reference value :  4.26898e-06
 Reference value :  4.27671e-06
 Reference value :  4.29219e-06
 Reference value :  4.32313e-06
 Reference value :  4.38502e-06
 Reference value :  4.50000e-06
 Reference value :  4.50001e-06
 Reference value :  4.50003e-06
 Reference value :  4.50007e-06
 Reference value :  4.50010e-06
 Reference value :  4.50010e-06
 Reference value :  4.50011e-06
 Reference value :  4.50013e-06
 Reference value :  4.50016e-06
 Reference value :  4.50023e-06
 Reference value :  4.50037e-06
 Reference value :  4.50054e-06
 Reference value :  4.50090e-06
 Reference value :  4.50139e-06
 Reference value :  4.50191e-06
 Reference value :  4.50242e-06
 Reference value :  4.50304e-06
 Reference value :  4.50369e-06
 Reference value :  4.50456e-06
 Reference value :  4.50534e-06
 Reference value :  4.50628e-06
 Reference value :  4.50743e-06
 Reference value :  4.50870e-06
 Reference value :  4.50990e-06
 Reference value :  4.51112e-06
 Reference value :  4.51229e-06
 Reference value :  4.51361e-06
 Reference value :  4.51493e-06
 Reference value :  4.51644e-06
 Reference value :  4.51946e-06
 Reference value :  4.52550e-06
 Reference value :  4.53608e-06
 Reference value :  4.55722e-06
 Reference value :  4.59951e-06
 Reference value :  4.68409e-06
 Reference value :  4.75010e-06
 Reference value :  4.75011e-06
 Reference value :  4.75013e-06
 Reference value :  4.75017e-06
 Reference value :  4.75020e-06
 Reference value :  4.75020e-06
 Reference value :  4.75020e-06
 Reference value :  4.75021e-06
 Reference value :  4.75021e-06
 Reference value :  4.75022e-06
 Reference value :  4.75025e-06
 Reference value :  4.75029e-06
 Reference value :  4.75039e-06
 Reference value :  4.75058e-06
 Reference value :  4.75091e-06
 Reference value :  4.75140e-06
 Reference value :  4.75204e-06
 Reference value :  4.75261e-06
 Reference value :  4.75330e-06
 Reference value :  4.75415e-06
 Reference value :  4.75476e-06
 Reference value :  4.75546e-06
 Reference value :  4.75615e-06
 Reference value :  4.75689e-06
 Reference value :  4.75786e-06
 Reference value :  4.75891e-06
 Reference value :  4.76015e-06
 Reference value :  4.76155e-06
 Reference value :  4.76353e-06
 Reference value :  4.76561e-06
 Reference value :  4.76918e-06
 Reference value :  4.77385e-06
 Reference value :  4.78319e-06
 Reference value :  4.80186e-06
 Reference value :  4.83920e-06
 Reference value :  4.91388e-06
 Reference value :  5.00000e-06
 Reference value :  5.00001e-06
 Reference value :  5.00003e-06
 Reference value :  5.00007e-06
 Reference value :  5.00010e-06
 Reference value :  5.00010e-06
 Reference value :  5.00011e-06
 Reference value :  5.00013e-06
 Reference value :  5.00016e-06
 Reference value :  5.00023e-06
 Reference value :  5.00036e-06
 Reference value :  5.00054e-06
 Reference value :  5.00089e-06
 Reference value :  5.00138e-06
 Reference value :  5.00189e-06
 Reference value :  5.00243e-06
 Reference value :  5.00309e-06
 Reference value :  5.00374e-06
 Reference value :  5.00451e-06
 Reference value :  5.00514e-06
 Reference value :  5.00584e-06
 Reference value :  5.00652e-06
 Reference value :  5.00720e-06
 Reference value :  5.00792e-06
 Reference value :  5.00898e-06
 Reference value :  5.00994e-06
 Reference value :  5.01179e-06
 Reference value :  5.01294e-06
 Reference value :  5.01429e-06
 Reference value :  5.01560e-06
 Reference value :  5.01715e-06
 Reference value :  5.01864e-06
 Reference value :  5.02001e-06
 Reference value :  5.02151e-06
 Reference value :  5.02284e-06
 Reference value :  5.02423e-06
 Reference value :  5.02587e-06
 Reference value :  5.02798e-06
 Reference value :  5.03026e-06
 Reference value :  5.03405e-06
 Reference value :  5.03950e-06
 Reference value :  5.04817e-06
 Reference value :  5.06276e-06
 Reference value :  5.07838e-06
 Reference value :  5.09297e-06
 Reference value :  5.10713e-06
 Reference value :  5.12257e-06
 Reference value :  5.14370e-06
 Reference value :  5.16660e-06
 Reference value :  5.21241e-06
 Reference value :  5.25010e-06
 Reference value :  5.25011e-06
 Reference value :  5.25013e-06
 Reference value :  5.25017e-06
 Reference value :  5.25020e-06
 Reference value :  5.25020e-06
 Reference value :  5.25020e-06
 Reference value :  5.25021e-06
 Reference value :  5.25021e-06
 Reference value :  5.25022e-06
 Reference value :  5.25025e-06
 Reference value :  5.25029e-06
 Reference value :  5.25039e-06
 Reference value :  5.25057e-06
 Reference value :  5.25090e-06
 Reference value :  5.25139e-06
 Reference value :  5.25201e-06
 Reference value :  5.25260e-06
 Reference value :  5.25328e-06
 Reference value :  5.25413e-06
 Reference value :  5.25473e-06
 Reference value :  5.25543e-06
 Reference value :  5.25631e-06
 Reference value :  5.25721e-06
 Reference value :  5.25827e-06
 Reference value :  5.26016e-06
 Reference value :  5.26209e-06
 Reference value :  5.26521e-06
 Reference value :  5.26910e-06
 Reference value :  5.27688e-06
 Reference value :  5.29244e-06
 Reference value :  5.32356e-06
 Reference value :  5.38580e-06
 Reference value :  5.50000e-06
 Reference value :  5.50001e-06
 Reference value :  5.50003e-06
 Reference value :  5.50007e-06
 Reference value :  5.50010e-06
 Reference value :  5.50010e-06
 Reference value :  5.50011e-06
 Reference value :  5.50013e-06
 Reference value :  5.50016e-06
 Reference value :  5.50023e-06
 Reference value :  5.50037e-06
 Reference value :  5.50054e-06
 Reference value :  5.50090e-06
 Reference value :  5.50140e-06
 Reference value :  5.50191e-06
 Reference value :  5.50242e-06
 Reference value :  5.50304e-06
 Reference value :  5.50370e-06
 Reference value :  5.50456e-06
 Reference value :  5.50538e-06
 Reference value :  5.50630e-06
 Reference value :  5.50761e-06
 Reference value :  5.50882e-06
 Reference value :  5.51017e-06
 Reference value :  5.51150e-06
 Reference value :  5.51282e-06
 Reference value :  5.51418e-06
 Reference value :  5.51572e-06
 Reference value :  5.51746e-06
 Reference value :  5.52056e-06
 Reference value :  5.52511e-06
 Reference value :  5.53374e-06
 Reference value :  5.54979e-06
 Reference value :  5.57950e-06
 Reference value :  5.63850e-06
 Reference value :  5.75010e-06
 Reference value :  5.75011e-06
 Reference value :  5.75013e-06
 Reference value :  5.75017e-06
 Reference value :  5.75020e-06
 Reference value :  5.75020e-06
 Reference value :  5.75020e-06
 Reference value :  5.75021e-06
 Reference value :  5.75021e-06
 Reference value :  5.75022e-06
 Reference value :  5.75025e-06
 Reference value :  5.75029e-06
 Reference value :  5.75039e-06
 Reference value :  5.75058e-06
 Reference value :  5.75091e-06
 Reference value :  5.75140e-06
 Reference value :  5.75204e-06
 Reference value :  5.75261e-06
 Reference value :  5.75330e-06
 Reference value :  5.75414e-06
 Reference value :  5.75475e-06
 Reference value :  5.75545e-06
 Reference value :  5.75614e-06
 Reference value :  5.75686e-06
 Reference value :  5.75783e-06
 Reference value :  5.75887e-06
 Reference value :  5.76005e-06
 Reference value :  5.76147e-06
 Reference value :  5.76355e-06
 Reference value :  5.76559e-06
 Reference value :  5.76916e-06
 Reference value :  5.77366e-06
 Reference value :  5.78265e-06
 Reference value :  5.80063e-06
 Reference value :  5.83660e-06
 Reference value :  5.90853e-06
 Reference value :  6.00000e-06
 Reference value :  6.00001e-06
 Reference value :  6.00003e-06
 Reference value :  6.00007e-06
 Reference value :  6.00010e-06
 Reference value :  6.00010e-06
 Reference value :  6.00011e-06
 Reference value :  6.00013e-06
 Reference value :  6.00016e-06
 Reference value :  6.00023e-06
 Reference value :  6.00036e-06
 Reference value :  6.00054e-06
 Reference value :  6.00089e-06
 Reference value :  6.00139e-06
 Reference value :  6.00190e-06
 Reference value :  6.00243e-06
 Reference value :  6.00309e-06
 Reference value :  6.00375e-06
 Reference value :  6.00452e-06
 Reference value :  6.00515e-06
 Reference value :  6.00584e-06
 Reference value :  6.00654e-06
 Reference value :  6.00726e-06
 Reference value :  6.00801e-06
 Reference value :  6.00908e-06
 Reference value :  6.01014e-06
 Reference value :  6.01205e-06
 Reference value :  6.01326e-06
 Reference value :  6.01466e-06
 Reference value :  6.01601e-06
 Reference value :  6.01754e-06
 Reference value :  6.01909e-06
 Reference value :  6.02050e-06
 Reference value :  6.02212e-06
 Reference value :  6.02370e-06
 Reference value :  6.02531e-06
 Reference value :  6.02721e-06
 Reference value :  6.03004e-06
 Reference value :  6.03294e-06
 Reference value :  6.03875e-06
 Reference value :  6.04740e-06
 Reference value :  6.05592e-06
 Reference value :  6.06807e-06
 Reference value :  6.08593e-06
 Reference value :  6.10855e-06
 Reference value :  6.12962e-06
 Reference value :  6.15276e-06
 Reference value :  6.18755e-06
 Reference value :  6.22545e-06
 Reference value :  6.25010e-06
 Reference value :  6.25011e-06
 Reference value :  6.25013e-06
 Reference value :  6.25017e-06
 Reference value :  6.25020e-06
 Reference value :  6.25020e-06
 Reference value :  6.25020e-06
 Reference value :  6.25021e-06
 Reference value :  6.25021e-06
 Reference value :  6.25022e-06
 Reference value :  6.25025e-06
 Reference value :  6.25029e-06
 Reference value :  6.25039e-06
 Reference value :  6.25058e-06
 Reference value :  6.25091e-06
 Reference value :  6.25141e-06
 Reference value :  6.25204e-06
 Reference value :  6.25262e-06
 Reference value :  6.25330e-06
 Reference value :  6.25414e-06
 Reference value :  6.25474e-06
 Reference value :  6.25543e-06
 Reference value :  6.25628e-06
 Reference value :  6.25722e-06
 Reference value :  6.25824e-06
 Reference value :  6.26029e-06
 Reference value :  6.26219e-06
 Reference value :  6.26542e-06
 Reference value :  6.26928e-06
 Reference value :  6.27701e-06
 Reference value :  6.29247e-06
 Reference value :  6.32338e-06
 Reference value :  6.38520e-06
 Reference value :  6.50000e-06
 Reference value :  6.50001e-06
 Reference value :  6.50003e-06
 Reference value :  6.50007e-06
 Reference value :  6.50010e-06
 Reference value :  6.50010e-06
 Reference value :  6.50011e-06
 Reference value :  6.50013e-06
 Reference value :  6.50016e-06
 Reference value :  6.50023e-06
 Reference value :  6.50037e-06
 Reference value :  6.50054e-06
 Reference value :  6.50090e-06
 Reference value :  6.50140e-06
 Reference value :  6.50191e-06
 Reference value :  6.50242e-06
 Reference value :  6.50304e-06
 Reference value :  6.50370e-06
 Reference value :  6.50456e-06
 Reference value :  6.50535e-06
 Reference value :  6.50628e-06
 Reference value :  6.50743e-06
 Reference value :  6.50873e-06
 Reference value :  6.50988e-06
 Reference value :  6.51108e-06
 Reference value :  6.51219e-06
 Reference value :  6.51350e-06
 Reference value :  6.51482e-06
 Reference value :  6.51630e-06
 Reference value :  6.51928e-06
 Reference value :  6.52523e-06
 Reference value :  6.53559e-06
 Reference value :  6.55629e-06
 Reference value :  6.59771e-06
 Reference value :  6.68055e-06
 Reference value :  6.75010e-06
 Reference value :  6.75011e-06
 Reference value :  6.75013e-06
 Reference value :  6.75017e-06
 Reference value :  6.75020e-06
 Reference value :  6.75020e-06
 Reference value :  6.75020e-06
 Reference value :  6.75021e-06
 Reference value :  6.75021e-06
 Reference value :  6.75022e-06
 Reference value :  6.75025e-06
 Reference value :  6.75029e-06
 Reference value :  6.75039e-06
 Reference value :  6.75058e-06
 Reference value :  6.75091e-06
 Reference value :  6.75141e-06
 Reference value :  6.75204e-06
 Reference value :  6.75262e-06
 Reference value :  6.75330e-06
 Reference value :  6.75415e-06
 Reference value :  6.75476e-06
 Reference value :  6.75545e-06
 Reference value :  6.75615e-06
 Reference value :  6.75688e-06
 Reference value :  6.75786e-06
 Reference value :  6.75892e-06
 Reference value :  6.76005e-06
 Reference value :  6.76151e-06
 Reference value :  6.76358e-06
 Reference value :  6.76561e-06
 Reference value :  6.76921e-06
 Reference value :  6.77374e-06
 Reference value :  6.78281e-06
 Reference value :  6.80095e-06
 Reference value :  6.83723e-06
 Reference value :  6.90978e-06
 Reference value :  7.00000e-06
 Reference value :  7.00001e-06
 Reference value :  7.00003e-06
 Reference value :  7.00007e-06
 Reference value :  7.00010e-06
 Reference value :  7.00010e-06
 Reference value :  7.00011e-06
 Reference value :  7.00013e-06
 Reference value :  7.00016e-06
 Reference value :  7.00023e-06
 Reference value :  7.00036e-06
 Reference value :  7.00054e-06
 Reference value :  7.00089e-06
 Reference value :  7.00139e-06
 Reference value :  7.00190e-06
 Reference value :  7.00243e-06
 Reference value :  7.00309e-06
 Reference value :  7.00375e-06
 Reference value :  7.00452e-06
 Reference value :  7.00515e-06
 Reference value :  7.00584e-06
 Reference value :  7.00653e-06
 Reference value :  7.00722e-06
 Reference value :  7.00794e-06
 Reference value :  7.00900e-06
 Reference value :  7.01000e-06
 Reference value :  7.01151e-06
 Reference value :  7.01299e-06
 Reference value :  7.01436e-06
 Reference value :  7.01585e-06
 Reference value :  7.01745e-06
 Reference value :  7.01929e-06
 Reference value :  7.02052e-06
 Reference value :  7.02186e-06
 Reference value :  7.02313e-06
 Reference value :  7.02443e-06
 Reference value :  7.02594e-06
 Reference value :  7.02804e-06
 Reference value :  7.03022e-06
 Reference value :  7.03408e-06
 Reference value :  7.03970e-06
 Reference value :  7.04671e-06
 Reference value :  7.05648e-06
 Reference value :  7.07602e-06
 Reference value :  7.09461e-06
 Reference value :  7.10857e-06
 Reference value :  7.12191e-06
 Reference value :  7.14367e-06
 Reference value :  7.16441e-06
 Reference value :  7.19134e-06
 Reference value :  7.22129e-06
 Reference value :  7.25010e-06
 Reference value :  7.25011e-06
 Reference value :  7.25013e-06
 Reference value :  7.25017e-06
 Reference value :  7.25020e-06
 Reference value :  7.25020e-06
 Reference value :  7.25020e-06
 Reference value :  7.25021e-06
 Reference value :  7.25021e-06
 Reference value :  7.25022e-06
 Reference value :  7.25025e-06
 Reference value :  7.25029e-06
 Reference value :  7.25039e-06
 Reference value :  7.25058e-06
 Reference value :  7.25092e-06
 Reference value :  7.25141e-06
 Reference value :  7.25198e-06
 Reference value :  7.25258e-06
 Reference value :  7.25322e-06
 Reference value :  7.25406e-06
 Reference value :  7.25467e-06
 Reference value :  7.25538e-06
 Reference value :  7.25619e-06
 Reference value :  7.25702e-06
 Reference value :  7.25813e-06
 Reference value :  7.25984e-06
 Reference value :  7.26179e-06
 Reference value :  7.26460e-06
 Reference value :  7.26847e-06
 Reference value :  7.27620e-06
 Reference value :  7.29167e-06
 Reference value :  7.32155e-06
 Reference value :  7.38132e-06
 Reference value :  7.50000e-06
 Reference value :  7.50001e-06
 Reference value :  7.50003e-06
 Reference value :  7.50007e-06
 Reference value :  7.50010e-06
 Reference value :  7.50010e-06
 Reference value :  7.50011e-06
 Reference value :  7.50013e-06
 Reference value :  7.50016e-06
 Reference value :  7.50023e-06
 Reference value :  7.50037e-06
 Reference value :  7.50054e-06
 Reference value :  7.50090e-06
 Reference value :  7.50142e-06
 Reference value :  7.50194e-06
 Reference value :  7.50250e-06
 Reference value :  7.50316e-06
 Reference value :  7.50386e-06
 Reference value :  7.50459e-06
 Reference value :  7.50541e-06
 Reference value :  7.50627e-06
 Reference value :  7.50744e-06
 Reference value :  7.50887e-06
 Reference value :  7.51013e-06
 Reference value :  7.51143e-06
 Reference value :  7.51261e-06
 Reference value :  7.51396e-06
 Reference value :  7.51529e-06
 Reference value :  7.51683e-06
 Reference value :  7.51991e-06
 Reference value :  7.52567e-06
 Reference value :  7.53661e-06
 Reference value :  7.55850e-06
 Reference value :  7.60228e-06
 Reference value :  7.68984e-06
 Reference value :  7.75010e-06
 Reference value :  7.75011e-06
 Reference value :  7.75013e-06
 Reference value :  7.75017e-06
 Reference value :  7.75020e-06
 Reference value :  7.75020e-06
 Reference value :  7.75020e-06
 Reference value :  7.75021e-06
 Reference value :  7.75021e-06
 Reference value :  7.75022e-06
 Reference value :  7.75025e-06
 Reference value :  7.75029e-06
 Reference value :  7.75039e-06
 Reference value :  7.75058e-06
 Reference value :  7.75092e-06
 Reference value :  7.75141e-06
 Reference value :  7.75198e-06
 Reference value :  7.75258e-06
 Reference value :  7.75322e-06
 Reference value :  7.75406e-06
 Reference value :  7.75467e-06
 Reference value :  7.75537e-06
 Reference value :  7.75602e-06
 Reference value :  7.75674e-06
 Reference value :  7.75764e-06
 Reference value :  7.75865e-06
 Reference value :  7.76066e-06
 Reference value :  7.76277e-06
 Reference value :  7.76636e-06
 Reference value :  7.77079e-06
 Reference value :  7.77965e-06
 Reference value :  7.79738e-06
 Reference value :  7.83283e-06
 Reference value :  7.90375e-06
 Reference value :  8.00000e-06
 Reference value :  8.00001e-06
 Reference value :  8.00003e-06
 Reference value :  8.00007e-06
 Reference value :  8.00010e-06
 Reference value :  8.00010e-06
 Reference value :  8.00011e-06
 Reference value :  8.00013e-06
 Reference value :  8.00016e-06
 Reference value :  8.00023e-06
 Reference value :  8.00036e-06
 Reference value :  8.00054e-06
 Reference value :  8.00090e-06
 Reference value :  8.00141e-06
 Reference value :  8.00193e-06
 Reference value :  8.00248e-06
 Reference value :  8.00314e-06
 Reference value :  8.00383e-06
 Reference value :  8.00463e-06
 Reference value :  8.00531e-06
 Reference value :  8.00603e-06
 Reference value :  8.00682e-06
 Reference value :  8.00759e-06
 Reference value :  8.00843e-06
 Reference value :  8.00958e-06
 Reference value :  8.01089e-06
 Reference value :  8.01304e-06
 Reference value :  8.01567e-06
 Reference value :  8.01766e-06
 Reference value :  8.01986e-06
 Reference value :  8.02201e-06
 Reference value :  8.02449e-06
 Reference value :  8.02835e-06
 Reference value :  8.03344e-06
 Reference value :  8.04219e-06
 Reference value :  8.05633e-06
 Reference value :  8.08026e-06
 Reference value :  8.12255e-06
 Reference value :  8.19500e-06
 Reference value :  8.25010e-06
 Reference value :  8.25011e-06
 Reference value :  8.25013e-06
 Reference value :  8.25017e-06
 Reference value :  8.25020e-06
 Reference value :  8.25020e-06
 Reference value :  8.25020e-06
 Reference value :  8.25021e-06
 Reference value :  8.25021e-06
 Reference value :  8.25022e-06
 Reference value :  8.25025e-06
 Reference value :  8.25029e-06
 Reference value :  8.25039e-06
 Reference value :  8.25058e-06
 Reference value :  8.25096e-06
 Reference value :  8.25143e-06
 Reference value :  8.25198e-06
 Reference value :  8.25258e-06
 Reference value :  8.25322e-06
 Reference value :  8.25404e-06
 Reference value :  8.25495e-06
 Reference value :  8.25612e-06
 Reference value :  8.25752e-06
 Reference value :  8.25885e-06
 Reference value :  8.26110e-06
 Reference value :  8.26350e-06
 Reference value :  8.26727e-06
 Reference value :  8.27288e-06
 Reference value :  8.28409e-06
 Reference value :  8.30652e-06
 Reference value :  8.35138e-06
 Reference value :  8.44110e-06
 Reference value :  8.50000e-06
No. of Data Rows : 1316
ngspice-44 done
