
Note: Compatibility modes selected: hs a


Circuit: ** sch_path: /home/samantha/cace/sar-adc-using-sky130-pdk/runs/run_2025-09-05_16-28-34/parameters/power/run_15/power_consumption.sch

option SCALE: Scale is set to 1e-06 for instance and model parameters
option SCALE: Scale is set to 1e-06 for instance and model parameters
option SCALE: Scale is set to 1e-06 for instance and model parameters
option SCALE: Scale is set to 1e-06 for instance and model parameters
Doing analysis at TEMP = 27.000000 and TNOM = 27.000000

Using KLU as Direct Linear Solver
 Reference value :  0.00000e+00
 Reference value :  1.00000e-12
 Reference value :  4.00000e-12
 Reference value :  1.60000e-11
 Reference value :  6.40000e-11
 Reference value :  1.06400e-10
 Reference value :  1.44800e-10
 Reference value :  2.98400e-10
 Reference value :  7.14685e-10
 Reference value :  1.44317e-09
 Reference value :  1.79864e-09
 Reference value :  2.63984e-09
 Reference value :  3.02235e-09
 Reference value :  3.97671e-09
 Reference value :  5.02618e-09
 Reference value :  5.57310e-09
 Reference value :  6.38791e-09
 Reference value :  7.16530e-09
 Reference value :  7.99867e-09
 Reference value :  9.86580e-09
 Reference value :  1.22146e-08
 Reference value :  1.29828e-08
 Reference value :  1.45252e-08
 Reference value :  1.64914e-08
 Reference value :  1.78994e-08
 Reference value :  2.13085e-08
 Reference value :  2.26221e-08
 Reference value :  2.47461e-08
 Reference value :  2.77346e-08
 Reference value :  3.59603e-08
 Reference value :  4.49503e-08
 Reference value :  6.32207e-08
 Reference value :  1.14313e-07
 Reference value :  2.37433e-07
 Reference value :  2.50110e-07
 Reference value :  2.50170e-07
 Reference value :  2.50207e-07
 Reference value :  2.50250e-07
 Reference value :  2.50378e-07
 Reference value :  2.50654e-07
 Reference value :  2.51239e-07
 Reference value :  2.51656e-07
 Reference value :  2.52104e-07
 Reference value :  2.53485e-07
 Reference value :  2.54051e-07
 Reference value :  2.55368e-07
 Reference value :  2.56961e-07
 Reference value :  2.59498e-07
 Reference value :  2.72153e-07
 Reference value :  3.03581e-07
 Reference value :  4.04318e-07
 Reference value :  5.00010e-07
 Reference value :  5.00070e-07
 Reference value :  5.00108e-07
 Reference value :  5.00155e-07
 Reference value :  5.00335e-07
 Reference value :  5.00812e-07
 Reference value :  5.01269e-07
 Reference value :  5.02175e-07
 Reference value :  5.03239e-07
 Reference value :  5.04472e-07
 Reference value :  5.06234e-07
 Reference value :  5.07281e-07
 Reference value :  5.09983e-07
 Reference value :  5.12803e-07
 Reference value :  5.14517e-07
 Reference value :  5.16058e-07
 Reference value :  5.20174e-07
 Reference value :  5.26891e-07
 Reference value :  5.61255e-07
 Reference value :  6.70916e-07
 Reference value :  7.50110e-07
 Reference value :  7.50170e-07
 Reference value :  7.50208e-07
 Reference value :  7.50254e-07
 Reference value :  7.50440e-07
 Reference value :  7.50795e-07
 Reference value :  7.51624e-07
 Reference value :  7.52099e-07
 Reference value :  7.53420e-07
 Reference value :  7.53946e-07
 Reference value :  7.54540e-07
 Reference value :  7.55092e-07
 Reference value :  7.56532e-07
 Reference value :  7.59013e-07
 Reference value :  7.64882e-07
 Reference value :  7.86722e-07
 Reference value :  8.74084e-07
 Reference value :  1.00000e-06
 Reference value :  1.00003e-06
 Reference value :  1.00010e-06
 Reference value :  1.00012e-06
 Reference value :  1.00022e-06
 Reference value :  1.00049e-06
 Reference value :  1.00132e-06
 Reference value :  1.00220e-06
 Reference value :  1.00330e-06
 Reference value :  1.00443e-06
 Reference value :  1.00556e-06
 Reference value :  1.00618e-06
 Reference value :  1.00763e-06
 Reference value :  1.01004e-06
 Reference value :  1.01276e-06
 Reference value :  1.01380e-06
 Reference value :  1.01589e-06
 Reference value :  1.01695e-06
 Reference value :  1.01926e-06
 Reference value :  1.02252e-06
 Reference value :  1.03152e-06
 Reference value :  1.06059e-06
 Reference value :  1.15804e-06
 Reference value :  1.25010e-06
 Reference value :  1.25013e-06
 Reference value :  1.25020e-06
 Reference value :  1.25022e-06
 Reference value :  1.25032e-06
 Reference value :  1.25057e-06
 Reference value :  1.25119e-06
 Reference value :  1.25210e-06
 Reference value :  1.25342e-06
 Reference value :  1.25395e-06
 Reference value :  1.25515e-06
 Reference value :  1.25674e-06
 Reference value :  1.25952e-06
 Reference value :  1.26633e-06
 Reference value :  1.29167e-06
 Reference value :  1.50000e-06
 Reference value :  1.50003e-06
 Reference value :  1.50010e-06
 Reference value :  1.50012e-06
 Reference value :  1.50022e-06
 Reference value :  1.50049e-06
 Reference value :  1.50127e-06
 Reference value :  1.50218e-06
 Reference value :  1.50322e-06
 Reference value :  1.50441e-06
 Reference value :  1.50616e-06
 Reference value :  1.50718e-06
 Reference value :  1.50831e-06
 Reference value :  1.50933e-06
 Reference value :  1.51038e-06
 Reference value :  1.51155e-06
 Reference value :  1.51289e-06
 Reference value :  1.51554e-06
 Reference value :  1.52662e-06
 Reference value :  1.56346e-06
 Reference value :  1.69049e-06
 Reference value :  1.75011e-06
 Reference value :  1.75017e-06
 Reference value :  1.75021e-06
 Reference value :  1.75026e-06
 Reference value :  1.75044e-06
 Reference value :  1.75080e-06
 Reference value :  1.75164e-06
 Reference value :  1.75269e-06
 Reference value :  1.75347e-06
 Reference value :  1.75399e-06
 Reference value :  1.75515e-06
 Reference value :  1.75662e-06
 Reference value :  1.75923e-06
 Reference value :  1.77342e-06
 Reference value :  1.82113e-06
 Reference value :  2.00001e-06
 Reference value :  2.00007e-06
 Reference value :  2.00011e-06
 Reference value :  2.00015e-06
 Reference value :  2.00033e-06
 Reference value :  2.00081e-06
 Reference value :  2.00127e-06
 Reference value :  2.00218e-06
 Reference value :  2.00267e-06
 Reference value :  2.00392e-06
 Reference value :  2.00443e-06
 Reference value :  2.00556e-06
 Reference value :  2.00619e-06
 Reference value :  2.00764e-06
 Reference value :  2.00867e-06
 Reference value :  2.01007e-06
 Reference value :  2.01151e-06
 Reference value :  2.01276e-06
 Reference value :  2.01380e-06
 Reference value :  2.01587e-06
 Reference value :  2.01693e-06
 Reference value :  2.01924e-06
 Reference value :  2.02249e-06
 Reference value :  2.03154e-06
 Reference value :  2.04415e-06
 Reference value :  2.05745e-06
 Reference value :  2.06995e-06
 Reference value :  2.08295e-06
 Reference value :  2.12590e-06
 Reference value :  2.22305e-06
 Reference value :  2.25011e-06
 Reference value :  2.25017e-06
 Reference value :  2.25021e-06
 Reference value :  2.25025e-06
 Reference value :  2.25044e-06
 Reference value :  2.25080e-06
 Reference value :  2.25162e-06
 Reference value :  2.25267e-06
 Reference value :  2.25342e-06
 Reference value :  2.25392e-06
 Reference value :  2.25517e-06
 Reference value :  2.25676e-06
 Reference value :  2.25969e-06
 Reference value :  2.26675e-06
 Reference value :  2.32565e-06
 Reference value :  2.50000e-06
 Reference value :  2.50003e-06
 Reference value :  2.50010e-06
 Reference value :  2.50012e-06
 Reference value :  2.50022e-06
 Reference value :  2.50049e-06
 Reference value :  2.50132e-06
 Reference value :  2.50220e-06
 Reference value :  2.50328e-06
 Reference value :  2.50394e-06
 Reference value :  2.50469e-06
 Reference value :  2.50653e-06
 Reference value :  2.50733e-06
 Reference value :  2.50822e-06
 Reference value :  2.50908e-06
 Reference value :  2.51115e-06
 Reference value :  2.51486e-06
 Reference value :  2.52506e-06
 Reference value :  2.55660e-06
 Reference value :  2.67572e-06
 Reference value :  2.75011e-06
 Reference value :  2.75017e-06
 Reference value :  2.75021e-06
 Reference value :  2.75032e-06
 Reference value :  2.75058e-06
 Reference value :  2.75122e-06
 Reference value :  2.75212e-06
 Reference value :  2.75346e-06
 Reference value :  2.75398e-06
 Reference value :  2.75513e-06
 Reference value :  2.75658e-06
 Reference value :  2.75839e-06
 Reference value :  2.76060e-06
 Reference value :  2.76783e-06
 Reference value :  2.78601e-06
 Reference value :  2.84442e-06
 Reference value :  3.00000e-06
 Reference value :  3.00003e-06
 Reference value :  3.00010e-06
 Reference value :  3.00012e-06
 Reference value :  3.00022e-06
 Reference value :  3.00049e-06
 Reference value :  3.00127e-06
 Reference value :  3.00218e-06
 Reference value :  3.00332e-06
 Reference value :  3.00442e-06
 Reference value :  3.00556e-06
 Reference value :  3.00617e-06
 Reference value :  3.00763e-06
 Reference value :  3.00976e-06
 Reference value :  3.01078e-06
 Reference value :  3.01298e-06
 Reference value :  3.01381e-06
 Reference value :  3.01558e-06
 Reference value :  3.01757e-06
 Reference value :  3.01876e-06
 Reference value :  3.02181e-06
 Reference value :  3.02804e-06
 Reference value :  3.04242e-06
 Reference value :  3.04776e-06
 Reference value :  3.05019e-06
 Reference value :  3.05230e-06
 Reference value :  3.05825e-06
 Reference value :  3.07368e-06
 Reference value :  3.09379e-06
 Reference value :  3.11159e-06
 Reference value :  3.18726e-06
 Reference value :  3.25010e-06
 Reference value :  3.25013e-06
 Reference value :  3.25020e-06
 Reference value :  3.25025e-06
 Reference value :  3.25044e-06
 Reference value :  3.25080e-06
 Reference value :  3.25162e-06
 Reference value :  3.25267e-06
 Reference value :  3.25342e-06
 Reference value :  3.25395e-06
 Reference value :  3.25515e-06
 Reference value :  3.25673e-06
 Reference value :  3.25951e-06
 Reference value :  3.27468e-06
 Reference value :  3.32504e-06
 Reference value :  3.50001e-06
 Reference value :  3.50007e-06
 Reference value :  3.50011e-06
 Reference value :  3.50022e-06
 Reference value :  3.50049e-06
 Reference value :  3.50127e-06
 Reference value :  3.50218e-06
 Reference value :  3.50322e-06
 Reference value :  3.50440e-06
 Reference value :  3.50614e-06
 Reference value :  3.50816e-06
 Reference value :  3.51015e-06
 Reference value :  3.51124e-06
 Reference value :  3.51499e-06
 Reference value :  3.52627e-06
 Reference value :  3.61416e-06
 Reference value :  3.75011e-06
 Reference value :  3.75017e-06
 Reference value :  3.75021e-06
 Reference value :  3.75026e-06
 Reference value :  3.75044e-06
 Reference value :  3.75080e-06
 Reference value :  3.75164e-06
 Reference value :  3.75269e-06
 Reference value :  3.75347e-06
 Reference value :  3.75399e-06
 Reference value :  3.75515e-06
 Reference value :  3.75662e-06
 Reference value :  3.75923e-06
 Reference value :  3.76546e-06
 Reference value :  3.78926e-06
 Reference value :  4.00000e-06
 Reference value :  4.00003e-06
 Reference value :  4.00010e-06
 Reference value :  4.00012e-06
 Reference value :  4.00022e-06
 Reference value :  4.00049e-06
 Reference value :  4.00127e-06
 Reference value :  4.00218e-06
 Reference value :  4.00332e-06
 Reference value :  4.00443e-06
 Reference value :  4.00501e-06
 Reference value :  4.00556e-06
 Reference value :  4.00618e-06
 Reference value :  4.00764e-06
 Reference value :  4.01006e-06
 Reference value :  4.01288e-06
 Reference value :  4.01394e-06
 Reference value :  4.01605e-06
 Reference value :  4.01709e-06
 Reference value :  4.01936e-06
 Reference value :  4.02271e-06
 Reference value :  4.03155e-06
 Reference value :  4.03701e-06
 Reference value :  4.04118e-06
 Reference value :  4.04509e-06
 Reference value :  4.05393e-06
 Reference value :  4.06454e-06
 Reference value :  4.07931e-06
 Reference value :  4.11534e-06
 Reference value :  4.22059e-06
 Reference value :  4.25011e-06
 Reference value :  4.25017e-06
 Reference value :  4.25021e-06
 Reference value :  4.25025e-06
 Reference value :  4.25038e-06
 Reference value :  4.25069e-06
 Reference value :  4.25133e-06
 Reference value :  4.25226e-06
 Reference value :  4.25375e-06
 Reference value :  4.25430e-06
 Reference value :  4.25564e-06
 Reference value :  4.25739e-06
 Reference value :  4.26113e-06
 Reference value :  4.27199e-06
 Reference value :  4.30443e-06
 Reference value :  4.40485e-06
 Reference value :  4.50001e-06
 Reference value :  4.50007e-06
 Reference value :  4.50011e-06
 Reference value :  4.50022e-06
 Reference value :  4.50059e-06
 Reference value :  4.50158e-06
 Reference value :  4.50263e-06
 Reference value :  4.50376e-06
 Reference value :  4.50441e-06
 Reference value :  4.50603e-06
 Reference value :  4.50798e-06
 Reference value :  4.50892e-06
 Reference value :  4.50992e-06
 Reference value :  4.51254e-06
 Reference value :  4.51760e-06
 Reference value :  4.53284e-06
 Reference value :  4.59016e-06
 Reference value :  4.75010e-06
 Reference value :  4.75013e-06
 Reference value :  4.75020e-06
 Reference value :  4.75022e-06
 Reference value :  4.75031e-06
 Reference value :  4.75051e-06
 Reference value :  4.75092e-06
 Reference value :  4.75176e-06
 Reference value :  4.75289e-06
 Reference value :  4.75377e-06
 Reference value :  4.75433e-06
 Reference value :  4.75565e-06
 Reference value :  4.75635e-06
 Reference value :  4.75718e-06
 Reference value :  4.75927e-06
 Reference value :  4.76189e-06
 Reference value :  4.76681e-06
 Reference value :  4.79774e-06
 Reference value :  4.87033e-06
 Reference value :  5.00000e-06
 Reference value :  5.00003e-06
 Reference value :  5.00010e-06
 Reference value :  5.00012e-06
 Reference value :  5.00022e-06
 Reference value :  5.00059e-06
 Reference value :  5.00158e-06
 Reference value :  5.00265e-06
 Reference value :  5.00378e-06
 Reference value :  5.00494e-06
 Reference value :  5.00605e-06
 Reference value :  5.00753e-06
 Reference value :  5.00962e-06
 Reference value :  5.01053e-06
 Reference value :  5.01267e-06
 Reference value :  5.01469e-06
 Reference value :  5.01688e-06
 Reference value :  5.01797e-06
 Reference value :  5.02067e-06
 Reference value :  5.02466e-06
 Reference value :  5.02689e-06
 Reference value :  5.02850e-06
 Reference value :  5.03144e-06
 Reference value :  5.03465e-06
 Reference value :  5.04412e-06
 Reference value :  5.07003e-06
 Reference value :  5.10476e-06
 Reference value :  5.25010e-06
 Reference value :  5.25013e-06
 Reference value :  5.25020e-06
 Reference value :  5.25022e-06
 Reference value :  5.25031e-06
 Reference value :  5.25051e-06
 Reference value :  5.25091e-06
 Reference value :  5.25173e-06
 Reference value :  5.25283e-06
 Reference value :  5.25369e-06
 Reference value :  5.25427e-06
 Reference value :  5.25576e-06
 Reference value :  5.25749e-06
 Reference value :  5.26129e-06
 Reference value :  5.28391e-06
 Reference value :  5.34380e-06
 Reference value :  5.50000e-06
 Reference value :  5.50003e-06
 Reference value :  5.50010e-06
 Reference value :  5.50012e-06
 Reference value :  5.50022e-06
 Reference value :  5.50059e-06
 Reference value :  5.50158e-06
 Reference value :  5.50266e-06
 Reference value :  5.50377e-06
 Reference value :  5.50439e-06
 Reference value :  5.50515e-06
 Reference value :  5.50593e-06
 Reference value :  5.50798e-06
 Reference value :  5.50993e-06
 Reference value :  5.51256e-06
 Reference value :  5.51770e-06
 Reference value :  5.53339e-06
 Reference value :  5.59333e-06
 Reference value :  5.75010e-06
 Reference value :  5.75013e-06
 Reference value :  5.75020e-06
 Reference value :  5.75022e-06
 Reference value :  5.75025e-06
 Reference value :  5.75038e-06
 Reference value :  5.75068e-06
 Reference value :  5.75132e-06
 Reference value :  5.75176e-06
 Reference value :  5.75224e-06
 Reference value :  5.75289e-06
 Reference value :  5.75376e-06
 Reference value :  5.75433e-06
 Reference value :  5.75497e-06
 Reference value :  5.75564e-06
 Reference value :  5.75730e-06
 Reference value :  5.75832e-06
 Reference value :  5.76329e-06
 Reference value :  5.77851e-06
 Reference value :  5.82750e-06
 Reference value :  5.88378e-06
 Reference value :  6.00000e-06
 Reference value :  6.00001e-06
 Reference value :  6.00007e-06
 Reference value :  6.00011e-06
 Reference value :  6.00015e-06
 Reference value :  6.00034e-06
 Reference value :  6.00095e-06
 Reference value :  6.00216e-06
 Reference value :  6.00265e-06
 Reference value :  6.00379e-06
 Reference value :  6.00445e-06
 Reference value :  6.00501e-06
 Reference value :  6.00625e-06
 Reference value :  6.00780e-06
 Reference value :  6.01025e-06
 Reference value :  6.01167e-06
 Reference value :  6.01297e-06
 Reference value :  6.01399e-06
 Reference value :  6.01605e-06
 Reference value :  6.01710e-06
 Reference value :  6.01937e-06
 Reference value :  6.02271e-06
 Reference value :  6.03054e-06
 Reference value :  6.03529e-06
 Reference value :  6.03890e-06
 Reference value :  6.04645e-06
 Reference value :  6.05541e-06
 Reference value :  6.06621e-06
 Reference value :  6.08690e-06
 Reference value :  6.13540e-06
 Reference value :  6.24160e-06
 Reference value :  6.25011e-06
 Reference value :  6.25017e-06
 Reference value :  6.25021e-06
 Reference value :  6.25025e-06
 Reference value :  6.25038e-06
 Reference value :  6.25066e-06
 Reference value :  6.25129e-06
 Reference value :  6.25173e-06
 Reference value :  6.25284e-06
 Reference value :  6.25369e-06
 Reference value :  6.25424e-06
 Reference value :  6.25562e-06
 Reference value :  6.25735e-06
 Reference value :  6.26109e-06
 Reference value :  6.28320e-06
 Reference value :  6.34290e-06
 Reference value :  6.50000e-06
 Reference value :  6.50003e-06
 Reference value :  6.50010e-06
 Reference value :  6.50012e-06
 Reference value :  6.50022e-06
 Reference value :  6.50059e-06
 Reference value :  6.50158e-06
 Reference value :  6.50263e-06
 Reference value :  6.50375e-06
 Reference value :  6.50440e-06
 Reference value :  6.50604e-06
 Reference value :  6.50798e-06
 Reference value :  6.50992e-06
 Reference value :  6.51254e-06
 Reference value :  6.51759e-06
 Reference value :  6.53279e-06
 Reference value :  6.66630e-06
 Reference value :  6.75011e-06
 Reference value :  6.75017e-06
 Reference value :  6.75021e-06
 Reference value :  6.75025e-06
 Reference value :  6.75038e-06
 Reference value :  6.75068e-06
 Reference value :  6.75132e-06
 Reference value :  6.75176e-06
 Reference value :  6.75289e-06
 Reference value :  6.75377e-06
 Reference value :  6.75433e-06
 Reference value :  6.75565e-06
 Reference value :  6.75635e-06
 Reference value :  6.75718e-06
 Reference value :  6.75927e-06
 Reference value :  6.76190e-06
 Reference value :  6.76682e-06
 Reference value :  6.79775e-06
 Reference value :  6.87037e-06
 Reference value :  7.00000e-06
 Reference value :  7.00003e-06
 Reference value :  7.00010e-06
 Reference value :  7.00012e-06
 Reference value :  7.00034e-06
 Reference value :  7.00095e-06
 Reference value :  7.00158e-06
 Reference value :  7.00265e-06
 Reference value :  7.00378e-06
 Reference value :  7.00494e-06
 Reference value :  7.00605e-06
 Reference value :  7.00753e-06
 Reference value :  7.00962e-06
 Reference value :  7.01053e-06
 Reference value :  7.01256e-06
 Reference value :  7.01366e-06
 Reference value :  7.01576e-06
 Reference value :  7.01800e-06
 Reference value :  7.02071e-06
 Reference value :  7.02536e-06
 Reference value :  7.03205e-06
 Reference value :  7.04813e-06
 Reference value :  7.05966e-06
 Reference value :  7.07600e-06
 Reference value :  7.08678e-06
 Reference value :  7.11229e-06
 Reference value :  7.22296e-06
 Reference value :  7.25010e-06
 Reference value :  7.25013e-06
 Reference value :  7.25020e-06
 Reference value :  7.25022e-06
 Reference value :  7.25031e-06
 Reference value :  7.25051e-06
 Reference value :  7.25091e-06
 Reference value :  7.25173e-06
 Reference value :  7.25283e-06
 Reference value :  7.25369e-06
 Reference value :  7.25425e-06
 Reference value :  7.25564e-06
 Reference value :  7.25737e-06
 Reference value :  7.26112e-06
 Reference value :  7.27200e-06
 Reference value :  7.29266e-06
 Reference value :  7.31580e-06
 Reference value :  7.40137e-06
 Reference value :  7.50000e-06
 Reference value :  7.50003e-06
 Reference value :  7.50010e-06
 Reference value :  7.50012e-06
 Reference value :  7.50022e-06
 Reference value :  7.50059e-06
 Reference value :  7.50158e-06
 Reference value :  7.50263e-06
 Reference value :  7.50376e-06
 Reference value :  7.50441e-06
 Reference value :  7.50603e-06
 Reference value :  7.50797e-06
 Reference value :  7.50991e-06
 Reference value :  7.51254e-06
 Reference value :  7.52292e-06
 Reference value :  7.55083e-06
 Reference value :  7.65049e-06
 Reference value :  7.75011e-06
 Reference value :  7.75017e-06
 Reference value :  7.75021e-06
 Reference value :  7.75025e-06
 Reference value :  7.75038e-06
 Reference value :  7.75069e-06
 Reference value :  7.75133e-06
 Reference value :  7.75178e-06
 Reference value :  7.75292e-06
 Reference value :  7.75438e-06
 Reference value :  7.75580e-06
 Reference value :  7.75651e-06
 Reference value :  7.75732e-06
 Reference value :  7.75824e-06
 Reference value :  7.76043e-06
 Reference value :  7.76396e-06
 Reference value :  7.77298e-06
 Reference value :  7.79675e-06
 Reference value :  7.86881e-06
 Reference value :  8.00000e-06
 Reference value :  8.00003e-06
 Reference value :  8.00010e-06
 Reference value :  8.00012e-06
 Reference value :  8.00022e-06
 Reference value :  8.00059e-06
 Reference value :  8.00158e-06
 Reference value :  8.00265e-06
 Reference value :  8.00378e-06
 Reference value :  8.00494e-06
 Reference value :  8.00552e-06
 Reference value :  8.00605e-06
 Reference value :  8.00752e-06
 Reference value :  8.00923e-06
 Reference value :  8.01011e-06
 Reference value :  8.01226e-06
 Reference value :  8.01501e-06
 Reference value :  8.01863e-06
 Reference value :  8.02041e-06
 Reference value :  8.02411e-06
 Reference value :  8.02851e-06
 Reference value :  8.04439e-06
 Reference value :  8.10915e-06
 Reference value :  8.25010e-06
 Reference value :  8.25013e-06
 Reference value :  8.25020e-06
 Reference value :  8.25022e-06
 Reference value :  8.25032e-06
 Reference value :  8.25057e-06
 Reference value :  8.25114e-06
 Reference value :  8.25154e-06
 Reference value :  8.25202e-06
 Reference value :  8.25325e-06
 Reference value :  8.25421e-06
 Reference value :  8.25533e-06
 Reference value :  8.25638e-06
 Reference value :  8.25886e-06
 Reference value :  8.26049e-06
 Reference value :  8.26961e-06
 Reference value :  8.30596e-06
 Reference value :  8.45136e-06
No. of Data Rows : 1272
ngspice-44 done
