
Note: Compatibility modes selected: hs a


Circuit: ** sch_path: /home/samantha/cace/sar-adc-using-sky130-pdk/runs/run_2025-09-04_11-32-36/parameters/sampling_rate/run_1/sampling_rate.sch

option SCALE: Scale is set to 1e-06 for instance and model parameters
option SCALE: Scale is set to 1e-06 for instance and model parameters
option SCALE: Scale is set to 1e-06 for instance and model parameters
option SCALE: Scale is set to 1e-06 for instance and model parameters
Doing analysis at TEMP = 27.000000 and TNOM = 27.000000

Using KLU as Direct Linear Solver
Operating point simulation skipped by 'uic',
  now using transient initial conditions.
 Reference value :  1.00000e-12
 Reference value :  1.02800e-12
 Reference value :  1.08400e-12
 Reference value :  1.19600e-12
 Reference value :  1.42000e-12
 Reference value :  1.69338e-12
 Reference value :  2.24013e-12
 Reference value :  3.11362e-12
 Reference value :  4.28494e-12
 Reference value :  6.21214e-12
 Reference value :  9.37110e-12
 Reference value :  2.00524e-11
 Reference value :  5.99787e-11
 Reference value :  1.00000e-10
 Reference value :  1.15971e-10
 Reference value :  1.79853e-10
 Reference value :  2.65029e-10
 Reference value :  4.35381e-10
 Reference value :  6.62410e-10
 Reference value :  9.32067e-10
 Reference value :  1.34994e-09
 Reference value :  1.84290e-09
 Reference value :  2.41464e-09
 Reference value :  3.13904e-09
 Reference value :  4.03093e-09
 Reference value :  5.07855e-09
 Reference value :  6.02922e-09
 Reference value :  6.65821e-09
 Reference value :  7.34583e-09
 Reference value :  8.16267e-09
 Reference value :  1.00446e-08
 Reference value :  1.08798e-08
 Reference value :  1.17023e-08
 Reference value :  1.25721e-08
 Reference value :  1.49481e-08
 Reference value :  1.69174e-08
 Reference value :  2.03571e-08
 Reference value :  2.48716e-08
 Reference value :  2.93203e-08
 Reference value :  3.91353e-08
 Reference value :  6.31435e-08
 Reference value :  1.09322e-07
 Reference value :  2.50100e-07
 Reference value :  2.50130e-07
 Reference value :  2.50170e-07
 Reference value :  2.50200e-07
 Reference value :  2.50208e-07
 Reference value :  2.50223e-07
 Reference value :  2.50255e-07
 Reference value :  2.50317e-07
 Reference value :  2.50550e-07
 Reference value :  2.50763e-07
 Reference value :  2.51013e-07
 Reference value :  2.51972e-07
 Reference value :  2.53136e-07
 Reference value :  2.53826e-07
 Reference value :  2.55087e-07
 Reference value :  2.56454e-07
 Reference value :  2.59359e-07
 Reference value :  2.64280e-07
 Reference value :  2.99305e-07
 Reference value :  4.18250e-07
 Reference value :  5.00010e-07
 Reference value :  5.00070e-07
 Reference value :  5.00108e-07
 Reference value :  5.00155e-07
 Reference value :  5.00344e-07
 Reference value :  5.00884e-07
 Reference value :  5.01634e-07
 Reference value :  5.02580e-07
 Reference value :  5.03098e-07
 Reference value :  5.04255e-07
 Reference value :  5.05878e-07
 Reference value :  5.07092e-07
 Reference value :  5.08400e-07
 Reference value :  5.09716e-07
 Reference value :  5.10908e-07
 Reference value :  5.12347e-07
 Reference value :  5.14065e-07
 Reference value :  5.15668e-07
 Reference value :  5.17738e-07
 Reference value :  5.20681e-07
 Reference value :  5.24677e-07
 Reference value :  5.30791e-07
 Reference value :  5.41746e-07
 Reference value :  5.58170e-07
 Reference value :  5.87168e-07
 Reference value :  6.34582e-07
 Reference value :  7.14024e-07
 Reference value :  7.50100e-07
 Reference value :  7.50110e-07
 Reference value :  7.50130e-07
 Reference value :  7.50170e-07
 Reference value :  7.50200e-07
 Reference value :  7.50208e-07
 Reference value :  7.50224e-07
 Reference value :  7.50320e-07
 Reference value :  7.50448e-07
 Reference value :  7.50629e-07
 Reference value :  7.51363e-07
 Reference value :  7.51772e-07
 Reference value :  7.52797e-07
 Reference value :  7.53499e-07
 Reference value :  7.53998e-07
 Reference value :  7.54573e-07
 Reference value :  7.55870e-07
 Reference value :  7.56679e-07
 Reference value :  7.57853e-07
 Reference value :  7.62507e-07
 Reference value :  7.74728e-07
 Reference value :  8.14271e-07
 Reference value :  9.72439e-07
 Reference value :  1.00001e-06
 Reference value :  1.00003e-06
 Reference value :  1.00010e-06
 Reference value :  1.00011e-06
 Reference value :  1.00012e-06
 Reference value :  1.00016e-06
 Reference value :  1.00022e-06
 Reference value :  1.00034e-06
 Reference value :  1.00053e-06
 Reference value :  1.00089e-06
 Reference value :  1.00121e-06
 Reference value :  1.00163e-06
 Reference value :  1.00211e-06
 Reference value :  1.00259e-06
 Reference value :  1.00308e-06
 Reference value :  1.00365e-06
 Reference value :  1.00420e-06
 Reference value :  1.00528e-06
 Reference value :  1.00675e-06
 Reference value :  1.00756e-06
 Reference value :  1.00918e-06
 Reference value :  1.01119e-06
 Reference value :  1.01273e-06
 Reference value :  1.01403e-06
 Reference value :  1.01528e-06
 Reference value :  1.01653e-06
 Reference value :  1.01782e-06
 Reference value :  1.01918e-06
 Reference value :  1.02057e-06
 Reference value :  1.02292e-06
 Reference value :  1.02522e-06
 Reference value :  1.02983e-06
 Reference value :  1.03721e-06
 Reference value :  1.05063e-06
 Reference value :  1.06289e-06
 Reference value :  1.07207e-06
 Reference value :  1.07939e-06
 Reference value :  1.08549e-06
 Reference value :  1.09183e-06
 Reference value :  1.09757e-06
 Reference value :  1.10545e-06
 Reference value :  1.11315e-06
 Reference value :  1.13517e-06
 Reference value :  1.15287e-06
 Reference value :  1.18048e-06
 Reference value :  1.23023e-06
 Reference value :  1.25010e-06
 Reference value :  1.25011e-06
 Reference value :  1.25013e-06
 Reference value :  1.25020e-06
 Reference value :  1.25021e-06
 Reference value :  1.25022e-06
 Reference value :  1.25026e-06
 Reference value :  1.25045e-06
 Reference value :  1.25087e-06
 Reference value :  1.25136e-06
 Reference value :  1.25177e-06
 Reference value :  1.25280e-06
 Reference value :  1.25347e-06
 Reference value :  1.25397e-06
 Reference value :  1.25507e-06
 Reference value :  1.25576e-06
 Reference value :  1.25795e-06
 Reference value :  1.25973e-06
 Reference value :  1.26595e-06
 Reference value :  1.28689e-06
 Reference value :  1.36929e-06
 Reference value :  1.50000e-06
 Reference value :  1.50003e-06
 Reference value :  1.50010e-06
 Reference value :  1.50011e-06
 Reference value :  1.50012e-06
 Reference value :  1.50016e-06
 Reference value :  1.50022e-06
 Reference value :  1.50053e-06
 Reference value :  1.50088e-06
 Reference value :  1.50159e-06
 Reference value :  1.50252e-06
 Reference value :  1.50301e-06
 Reference value :  1.50356e-06
 Reference value :  1.50490e-06
 Reference value :  1.50563e-06
 Reference value :  1.50624e-06
 Reference value :  1.50697e-06
 Reference value :  1.50794e-06
 Reference value :  1.50889e-06
 Reference value :  1.50985e-06
 Reference value :  1.51099e-06
 Reference value :  1.51226e-06
 Reference value :  1.51479e-06
 Reference value :  1.51875e-06
 Reference value :  1.52617e-06
 Reference value :  1.54016e-06
 Reference value :  1.56528e-06
 Reference value :  1.61553e-06
 Reference value :  1.71602e-06
 Reference value :  1.75011e-06
 Reference value :  1.75013e-06
 Reference value :  1.75020e-06
 Reference value :  1.75022e-06
 Reference value :  1.75032e-06
 Reference value :  1.75063e-06
 Reference value :  1.75087e-06
 Reference value :  1.75136e-06
 Reference value :  1.75177e-06
 Reference value :  1.75222e-06
 Reference value :  1.75280e-06
 Reference value :  1.75350e-06
 Reference value :  1.75399e-06
 Reference value :  1.75457e-06
 Reference value :  1.75517e-06
 Reference value :  1.75592e-06
 Reference value :  1.75669e-06
 Reference value :  1.75752e-06
 Reference value :  1.75862e-06
 Reference value :  1.75963e-06
 Reference value :  1.76165e-06
 Reference value :  1.76353e-06
 Reference value :  1.76695e-06
 Reference value :  1.77230e-06
 Reference value :  1.78004e-06
 Reference value :  1.79357e-06
 Reference value :  1.81379e-06
 Reference value :  1.84714e-06
 Reference value :  1.98529e-06
 Reference value :  2.00000e-06
 Reference value :  2.00003e-06
 Reference value :  2.00007e-06
 Reference value :  2.00010e-06
 Reference value :  2.00011e-06
 Reference value :  2.00012e-06
 Reference value :  2.00016e-06
 Reference value :  2.00022e-06
 Reference value :  2.00034e-06
 Reference value :  2.00053e-06
 Reference value :  2.00089e-06
 Reference value :  2.00121e-06
 Reference value :  2.00163e-06
 Reference value :  2.00211e-06
 Reference value :  2.00259e-06
 Reference value :  2.00309e-06
 Reference value :  2.00421e-06
 Reference value :  2.00523e-06
 Reference value :  2.00579e-06
 Reference value :  2.00646e-06
 Reference value :  2.00718e-06
 Reference value :  2.00820e-06
 Reference value :  2.00927e-06
 Reference value :  2.01023e-06
 Reference value :  2.01121e-06
 Reference value :  2.01215e-06
 Reference value :  2.01316e-06
 Reference value :  2.01384e-06
 Reference value :  2.01565e-06
 Reference value :  2.01654e-06
 Reference value :  2.01861e-06
 Reference value :  2.02169e-06
 Reference value :  2.02880e-06
 Reference value :  2.04925e-06
 Reference value :  2.11022e-06
 Reference value :  2.21962e-06
 Reference value :  2.25011e-06
 Reference value :  2.25013e-06
 Reference value :  2.25020e-06
 Reference value :  2.25022e-06
 Reference value :  2.25032e-06
 Reference value :  2.25063e-06
 Reference value :  2.25136e-06
 Reference value :  2.25177e-06
 Reference value :  2.25222e-06
 Reference value :  2.25351e-06
 Reference value :  2.25400e-06
 Reference value :  2.25458e-06
 Reference value :  2.25513e-06
 Reference value :  2.25583e-06
 Reference value :  2.25802e-06
 Reference value :  2.26631e-06
 Reference value :  2.28592e-06
 Reference value :  2.31578e-06
 Reference value :  2.36899e-06
 Reference value :  2.39556e-06
 Reference value :  2.41173e-06
 Reference value :  2.46567e-06
 Reference value :  2.49239e-06
 Reference value :  2.50001e-06
 Reference value :  2.50007e-06
 Reference value :  2.50011e-06
 Reference value :  2.50016e-06
 Reference value :  2.50022e-06
 Reference value :  2.50034e-06
 Reference value :  2.50053e-06
 Reference value :  2.50121e-06
 Reference value :  2.50160e-06
 Reference value :  2.50252e-06
 Reference value :  2.50301e-06
 Reference value :  2.50412e-06
 Reference value :  2.50565e-06
 Reference value :  2.50626e-06
 Reference value :  2.50797e-06
 Reference value :  2.50989e-06
 Reference value :  2.51106e-06
 Reference value :  2.51492e-06
 Reference value :  2.52596e-06
 Reference value :  2.56233e-06
 Reference value :  2.70154e-06
 Reference value :  2.75010e-06
 Reference value :  2.75011e-06
 Reference value :  2.75013e-06
 Reference value :  2.75020e-06
 Reference value :  2.75022e-06
 Reference value :  2.75032e-06
 Reference value :  2.75045e-06
 Reference value :  2.75063e-06
 Reference value :  2.75087e-06
 Reference value :  2.75136e-06
 Reference value :  2.75177e-06
 Reference value :  2.75222e-06
 Reference value :  2.75280e-06
 Reference value :  2.75350e-06
 Reference value :  2.75400e-06
 Reference value :  2.75457e-06
 Reference value :  2.75518e-06
 Reference value :  2.75593e-06
 Reference value :  2.75753e-06
 Reference value :  2.75862e-06
 Reference value :  2.75965e-06
 Reference value :  2.76166e-06
 Reference value :  2.76355e-06
 Reference value :  2.76697e-06
 Reference value :  2.77246e-06
 Reference value :  2.79441e-06
 Reference value :  2.85066e-06
 Reference value :  2.90744e-06
 Reference value :  2.99824e-06
 Reference value :  3.00001e-06
 Reference value :  3.00003e-06
 Reference value :  3.00007e-06
 Reference value :  3.00010e-06
 Reference value :  3.00011e-06
 Reference value :  3.00016e-06
 Reference value :  3.00022e-06
 Reference value :  3.00053e-06
 Reference value :  3.00089e-06
 Reference value :  3.00121e-06
 Reference value :  3.00164e-06
 Reference value :  3.00211e-06
 Reference value :  3.00259e-06
 Reference value :  3.00309e-06
 Reference value :  3.00422e-06
 Reference value :  3.00473e-06
 Reference value :  3.00523e-06
 Reference value :  3.00579e-06
 Reference value :  3.00647e-06
 Reference value :  3.00820e-06
 Reference value :  3.00927e-06
 Reference value :  3.01024e-06
 Reference value :  3.01122e-06
 Reference value :  3.01217e-06
 Reference value :  3.01318e-06
 Reference value :  3.01387e-06
 Reference value :  3.01467e-06
 Reference value :  3.01581e-06
 Reference value :  3.01677e-06
 Reference value :  3.01899e-06
 Reference value :  3.02035e-06
 Reference value :  3.02237e-06
 Reference value :  3.02922e-06
 Reference value :  3.03965e-06
 Reference value :  3.04447e-06
 Reference value :  3.04800e-06
 Reference value :  3.05139e-06
 Reference value :  3.05517e-06
 Reference value :  3.06541e-06
 Reference value :  3.07247e-06
 Reference value :  3.09058e-06
 Reference value :  3.12191e-06
 Reference value :  3.14416e-06
 Reference value :  3.23191e-06
 Reference value :  3.25011e-06
 Reference value :  3.25017e-06
 Reference value :  3.25020e-06
 Reference value :  3.25021e-06
 Reference value :  3.25026e-06
 Reference value :  3.25045e-06
 Reference value :  3.25087e-06
 Reference value :  3.25177e-06
 Reference value :  3.25280e-06
 Reference value :  3.25352e-06
 Reference value :  3.25402e-06
 Reference value :  3.25516e-06
 Reference value :  3.25585e-06
 Reference value :  3.25806e-06
 Reference value :  3.26273e-06
 Reference value :  3.27396e-06
 Reference value :  3.28893e-06
 Reference value :  3.31608e-06
 Reference value :  3.37039e-06
 Reference value :  3.50000e-06
 Reference value :  3.50003e-06
 Reference value :  3.50007e-06
 Reference value :  3.50010e-06
 Reference value :  3.50012e-06
 Reference value :  3.50016e-06
 Reference value :  3.50022e-06
 Reference value :  3.50034e-06
 Reference value :  3.50088e-06
 Reference value :  3.50164e-06
 Reference value :  3.50259e-06
 Reference value :  3.50308e-06
 Reference value :  3.50421e-06
 Reference value :  3.50576e-06
 Reference value :  3.50643e-06
 Reference value :  3.50804e-06
 Reference value :  3.50899e-06
 Reference value :  3.50992e-06
 Reference value :  3.51108e-06
 Reference value :  3.51476e-06
 Reference value :  3.52409e-06
 Reference value :  3.55098e-06
 Reference value :  3.65156e-06
 Reference value :  3.75011e-06
 Reference value :  3.75017e-06
 Reference value :  3.75021e-06
 Reference value :  3.75026e-06
 Reference value :  3.75045e-06
 Reference value :  3.75087e-06
 Reference value :  3.75136e-06
 Reference value :  3.75177e-06
 Reference value :  3.75222e-06
 Reference value :  3.75280e-06
 Reference value :  3.75350e-06
 Reference value :  3.75400e-06
 Reference value :  3.75458e-06
 Reference value :  3.75593e-06
 Reference value :  3.75669e-06
 Reference value :  3.76010e-06
 Reference value :  3.76681e-06
 Reference value :  3.77483e-06
 Reference value :  3.81730e-06
 Reference value :  3.98445e-06
 Reference value :  4.00001e-06
 Reference value :  4.00003e-06
 Reference value :  4.00007e-06
 Reference value :  4.00011e-06
 Reference value :  4.00016e-06
 Reference value :  4.00022e-06
 Reference value :  4.00053e-06
 Reference value :  4.00089e-06
 Reference value :  4.00164e-06
 Reference value :  4.00259e-06
 Reference value :  4.00308e-06
 Reference value :  4.00365e-06
 Reference value :  4.00420e-06
 Reference value :  4.00476e-06
 Reference value :  4.00528e-06
 Reference value :  4.00675e-06
 Reference value :  4.00920e-06
 Reference value :  4.01119e-06
 Reference value :  4.01269e-06
 Reference value :  4.01400e-06
 Reference value :  4.01524e-06
 Reference value :  4.01650e-06
 Reference value :  4.01781e-06
 Reference value :  4.02051e-06
 Reference value :  4.02512e-06
 Reference value :  4.03614e-06
 Reference value :  4.04407e-06
 Reference value :  4.06043e-06
 Reference value :  4.06641e-06
 Reference value :  4.07212e-06
 Reference value :  4.07837e-06
 Reference value :  4.08469e-06
 Reference value :  4.09156e-06
 Reference value :  4.09971e-06
 Reference value :  4.11051e-06
 Reference value :  4.11797e-06
 Reference value :  4.12292e-06
 Reference value :  4.12857e-06
 Reference value :  4.13394e-06
 Reference value :  4.13863e-06
 Reference value :  4.15567e-06
 Reference value :  4.17353e-06
 Reference value :  4.19628e-06
 Reference value :  4.25010e-06
 Reference value :  4.25013e-06
 Reference value :  4.25020e-06
 Reference value :  4.25022e-06
 Reference value :  4.25032e-06
 Reference value :  4.25042e-06
 Reference value :  4.25082e-06
 Reference value :  4.25151e-06
 Reference value :  4.25195e-06
 Reference value :  4.25240e-06
 Reference value :  4.25375e-06
 Reference value :  4.25427e-06
 Reference value :  4.25542e-06
 Reference value :  4.25615e-06
 Reference value :  4.25694e-06
 Reference value :  4.26064e-06
 Reference value :  4.26800e-06
 Reference value :  4.29362e-06
 Reference value :  4.38388e-06
 Reference value :  4.50001e-06
 Reference value :  4.50007e-06
 Reference value :  4.50011e-06
 Reference value :  4.50016e-06
 Reference value :  4.50034e-06
 Reference value :  4.50096e-06
 Reference value :  4.50242e-06
 Reference value :  4.50294e-06
 Reference value :  4.50349e-06
 Reference value :  4.50408e-06
 Reference value :  4.50473e-06
 Reference value :  4.50606e-06
 Reference value :  4.50770e-06
 Reference value :  4.50858e-06
 Reference value :  4.50962e-06
 Reference value :  4.51059e-06
 Reference value :  4.51193e-06
 Reference value :  4.51334e-06
 Reference value :  4.51965e-06
 Reference value :  4.52589e-06
 Reference value :  4.55547e-06
 Reference value :  4.59304e-06
 Reference value :  4.75010e-06
 Reference value :  4.75013e-06
 Reference value :  4.75020e-06
 Reference value :  4.75022e-06
 Reference value :  4.75026e-06
 Reference value :  4.75032e-06
 Reference value :  4.75061e-06
 Reference value :  4.75111e-06
 Reference value :  4.75151e-06
 Reference value :  4.75195e-06
 Reference value :  4.75240e-06
 Reference value :  4.75306e-06
 Reference value :  4.75425e-06
 Reference value :  4.75485e-06
 Reference value :  4.75616e-06
 Reference value :  4.75692e-06
 Reference value :  4.76064e-06
 Reference value :  4.76799e-06
 Reference value :  4.79324e-06
 Reference value :  4.88076e-06
 Reference value :  5.00000e-06
 Reference value :  5.00001e-06
 Reference value :  5.00007e-06
 Reference value :  5.00010e-06
 Reference value :  5.00012e-06
 Reference value :  5.00022e-06
 Reference value :  5.00057e-06
 Reference value :  5.00096e-06
 Reference value :  5.00185e-06
 Reference value :  5.00242e-06
 Reference value :  5.00348e-06
 Reference value :  5.00468e-06
 Reference value :  5.00519e-06
 Reference value :  5.00575e-06
 Reference value :  5.00650e-06
 Reference value :  5.00728e-06
 Reference value :  5.00878e-06
 Reference value :  5.01066e-06
 Reference value :  5.01214e-06
 Reference value :  5.01373e-06
 Reference value :  5.01491e-06
 Reference value :  5.01617e-06
 Reference value :  5.01724e-06
 Reference value :  5.01969e-06
 Reference value :  5.02150e-06
 Reference value :  5.02678e-06
 Reference value :  5.03198e-06
 Reference value :  5.03752e-06
 Reference value :  5.04422e-06
 Reference value :  5.05072e-06
 Reference value :  5.05702e-06
 Reference value :  5.06319e-06
 Reference value :  5.07019e-06
 Reference value :  5.08318e-06
 Reference value :  5.10467e-06
 Reference value :  5.17147e-06
 Reference value :  5.25010e-06
 Reference value :  5.25011e-06
 Reference value :  5.25017e-06
 Reference value :  5.25020e-06
 Reference value :  5.25022e-06
 Reference value :  5.25032e-06
 Reference value :  5.25042e-06
 Reference value :  5.25079e-06
 Reference value :  5.25110e-06
 Reference value :  5.25152e-06
 Reference value :  5.25242e-06
 Reference value :  5.25373e-06
 Reference value :  5.25427e-06
 Reference value :  5.25543e-06
 Reference value :  5.25623e-06
 Reference value :  5.25708e-06
 Reference value :  5.25867e-06
 Reference value :  5.26389e-06
 Reference value :  5.27857e-06
 Reference value :  5.33038e-06
 Reference value :  5.39801e-06
 Reference value :  5.50001e-06
 Reference value :  5.50007e-06
 Reference value :  5.50010e-06
 Reference value :  5.50012e-06
 Reference value :  5.50016e-06
 Reference value :  5.50034e-06
 Reference value :  5.50096e-06
 Reference value :  5.50185e-06
 Reference value :  5.50294e-06
 Reference value :  5.50347e-06
 Reference value :  5.50468e-06
 Reference value :  5.50545e-06
 Reference value :  5.50603e-06
 Reference value :  5.50678e-06
 Reference value :  5.50860e-06
 Reference value :  5.51063e-06
 Reference value :  5.51203e-06
 Reference value :  5.51613e-06
 Reference value :  5.51999e-06
 Reference value :  5.53766e-06
 Reference value :  5.59859e-06
 Reference value :  5.75010e-06
 Reference value :  5.75011e-06
 Reference value :  5.75013e-06
 Reference value :  5.75020e-06
 Reference value :  5.75022e-06
 Reference value :  5.75032e-06
 Reference value :  5.75061e-06
 Reference value :  5.75111e-06
 Reference value :  5.75151e-06
 Reference value :  5.75240e-06
 Reference value :  5.75306e-06
 Reference value :  5.75373e-06
 Reference value :  5.75425e-06
 Reference value :  5.75543e-06
 Reference value :  5.75616e-06
 Reference value :  5.75769e-06
 Reference value :  5.75866e-06
 Reference value :  5.76154e-06
 Reference value :  5.76661e-06
 Reference value :  5.77820e-06
 Reference value :  5.80616e-06
 Reference value :  5.87393e-06
 Reference value :  6.00000e-06
 Reference value :  6.00001e-06
 Reference value :  6.00007e-06
 Reference value :  6.00010e-06
 Reference value :  6.00012e-06
 Reference value :  6.00016e-06
 Reference value :  6.00034e-06
 Reference value :  6.00057e-06
 Reference value :  6.00096e-06
 Reference value :  6.00185e-06
 Reference value :  6.00241e-06
 Reference value :  6.00294e-06
 Reference value :  6.00348e-06
 Reference value :  6.00407e-06
 Reference value :  6.00476e-06
 Reference value :  6.00538e-06
 Reference value :  6.00596e-06
 Reference value :  6.00678e-06
 Reference value :  6.00754e-06
 Reference value :  6.00856e-06
 Reference value :  6.01058e-06
 Reference value :  6.01160e-06
 Reference value :  6.01269e-06
 Reference value :  6.01354e-06
 Reference value :  6.01543e-06
 Reference value :  6.01746e-06
 Reference value :  6.01855e-06
 Reference value :  6.02169e-06
 Reference value :  6.02782e-06
 Reference value :  6.03324e-06
 Reference value :  6.04735e-06
 Reference value :  6.07065e-06
 Reference value :  6.24142e-06
 Reference value :  6.25011e-06
 Reference value :  6.25017e-06
 Reference value :  6.25021e-06
 Reference value :  6.25026e-06
 Reference value :  6.25042e-06
 Reference value :  6.25079e-06
 Reference value :  6.25152e-06
 Reference value :  6.25242e-06
 Reference value :  6.25377e-06
 Reference value :  6.25430e-06
 Reference value :  6.25547e-06
 Reference value :  6.25623e-06
 Reference value :  6.25854e-06
 Reference value :  6.26370e-06
 Reference value :  6.27819e-06
 Reference value :  6.33022e-06
 Reference value :  6.50000e-06
 Reference value :  6.50003e-06
 Reference value :  6.50010e-06
 Reference value :  6.50012e-06
 Reference value :  6.50022e-06
 Reference value :  6.50057e-06
 Reference value :  6.50138e-06
 Reference value :  6.50242e-06
 Reference value :  6.50348e-06
 Reference value :  6.50473e-06
 Reference value :  6.50548e-06
 Reference value :  6.50606e-06
 Reference value :  6.50769e-06
 Reference value :  6.50858e-06
 Reference value :  6.51058e-06
 Reference value :  6.51190e-06
 Reference value :  6.51583e-06
 Reference value :  6.52559e-06
 Reference value :  6.55406e-06
 Reference value :  6.66172e-06
 Reference value :  6.75011e-06
 Reference value :  6.75017e-06
 Reference value :  6.75021e-06
 Reference value :  6.75026e-06
 Reference value :  6.75042e-06
 Reference value :  6.75082e-06
 Reference value :  6.75111e-06
 Reference value :  6.75151e-06
 Reference value :  6.75240e-06
 Reference value :  6.75306e-06
 Reference value :  6.75426e-06
 Reference value :  6.75544e-06
 Reference value :  6.75617e-06
 Reference value :  6.75845e-06
 Reference value :  6.76804e-06
 Reference value :  6.77703e-06
 Reference value :  6.79323e-06
 Reference value :  6.88008e-06
 Reference value :  7.00000e-06
 Reference value :  7.00003e-06
 Reference value :  7.00007e-06
 Reference value :  7.00011e-06
 Reference value :  7.00012e-06
 Reference value :  7.00022e-06
 Reference value :  7.00034e-06
 Reference value :  7.00096e-06
 Reference value :  7.00185e-06
 Reference value :  7.00241e-06
 Reference value :  7.00294e-06
 Reference value :  7.00348e-06
 Reference value :  7.00468e-06
 Reference value :  7.00519e-06
 Reference value :  7.00651e-06
 Reference value :  7.00879e-06
 Reference value :  7.01069e-06
 Reference value :  7.01216e-06
 Reference value :  7.01375e-06
 Reference value :  7.01499e-06
 Reference value :  7.01630e-06
 Reference value :  7.01759e-06
 Reference value :  7.02027e-06
 Reference value :  7.02229e-06
 Reference value :  7.02852e-06
 Reference value :  7.04265e-06
 Reference value :  7.05867e-06
 Reference value :  7.14101e-06
 Reference value :  7.25010e-06
 Reference value :  7.25011e-06
 Reference value :  7.25017e-06
 Reference value :  7.25021e-06
 Reference value :  7.25026e-06
 Reference value :  7.25042e-06
 Reference value :  7.25079e-06
 Reference value :  7.25152e-06
 Reference value :  7.25242e-06
 Reference value :  7.25309e-06
 Reference value :  7.25376e-06
 Reference value :  7.25430e-06
 Reference value :  7.25547e-06
 Reference value :  7.25623e-06
 Reference value :  7.25857e-06
 Reference value :  7.26375e-06
 Reference value :  7.27832e-06
 Reference value :  7.33011e-06
 Reference value :  7.50000e-06
 Reference value :  7.50003e-06
 Reference value :  7.50010e-06
 Reference value :  7.50012e-06
 Reference value :  7.50016e-06
 Reference value :  7.50022e-06
 Reference value :  7.50057e-06
 Reference value :  7.50096e-06
 Reference value :  7.50185e-06
 Reference value :  7.50242e-06
 Reference value :  7.50294e-06
 Reference value :  7.50348e-06
 Reference value :  7.50407e-06
 Reference value :  7.50472e-06
 Reference value :  7.50548e-06
 Reference value :  7.50606e-06
 Reference value :  7.50769e-06
 Reference value :  7.50858e-06
 Reference value :  7.50962e-06
 Reference value :  7.51191e-06
 Reference value :  7.51585e-06
 Reference value :  7.53616e-06
 Reference value :  7.66212e-06
 Reference value :  7.75011e-06
 Reference value :  7.75020e-06
 Reference value :  7.75022e-06
 Reference value :  7.75026e-06
 Reference value :  7.75032e-06
 Reference value :  7.75061e-06
 Reference value :  7.75111e-06
 Reference value :  7.75151e-06
 Reference value :  7.75195e-06
 Reference value :  7.75240e-06
 Reference value :  7.75373e-06
 Reference value :  7.75425e-06
 Reference value :  7.75485e-06
 Reference value :  7.75616e-06
 Reference value :  7.75844e-06
 Reference value :  7.76352e-06
 Reference value :  7.77696e-06
 Reference value :  7.79301e-06
 Reference value :  7.87879e-06
 Reference value :  8.00000e-06
 Reference value :  8.00003e-06
 Reference value :  8.00010e-06
 Reference value :  8.00011e-06
 Reference value :  8.00012e-06
 Reference value :  8.00022e-06
 Reference value :  8.00034e-06
 Reference value :  8.00096e-06
 Reference value :  8.00185e-06
 Reference value :  8.00294e-06
 Reference value :  8.00349e-06
 Reference value :  8.00468e-06
 Reference value :  8.00519e-06
 Reference value :  8.00651e-06
 Reference value :  8.00728e-06
 Reference value :  8.00803e-06
 Reference value :  8.00888e-06
 Reference value :  8.00986e-06
 Reference value :  8.01303e-06
 Reference value :  8.02443e-06
 Reference value :  8.06754e-06
 Reference value :  8.23997e-06
 Reference value :  8.25011e-06
 Reference value :  8.25017e-06
 Reference value :  8.25021e-06
 Reference value :  8.25026e-06
 Reference value :  8.25045e-06
 Reference value :  8.25083e-06
 Reference value :  8.25160e-06
 Reference value :  8.25204e-06
 Reference value :  8.25250e-06
 Reference value :  8.25324e-06
 Reference value :  8.25395e-06
 Reference value :  8.25580e-06
 Reference value :  8.25679e-06
 Reference value :  8.26023e-06
 Reference value :  8.26702e-06
 Reference value :  8.28991e-06
 Reference value :  8.38144e-06
 Reference value :  8.50000e-06
 Reference value :  8.50003e-06
 Reference value :  8.50010e-06
 Reference value :  8.50012e-06
 Reference value :  8.50022e-06
 Reference value :  8.50057e-06
 Reference value :  8.50096e-06
 Reference value :  8.50141e-06
 Reference value :  8.50248e-06
 Reference value :  8.50367e-06
 Reference value :  8.50473e-06
 Reference value :  8.50528e-06
 Reference value :  8.50594e-06
 Reference value :  8.50664e-06
 Reference value :  8.50976e-06
 Reference value :  8.51803e-06
 Reference value :  8.52376e-06
 Reference value :  8.52961e-06
 Reference value :  8.53358e-06
 Reference value :  8.53700e-06
 Reference value :  8.53961e-06
 Reference value :  8.54195e-06
 Reference value :  8.54763e-06
 Reference value :  8.55113e-06
 Reference value :  8.56223e-06
 Reference value :  8.58204e-06
 Reference value :  8.59764e-06
 Reference value :  8.65088e-06
 Reference value :  8.74516e-06
 Reference value :  8.75011e-06
 Reference value :  8.75017e-06
 Reference value :  8.75021e-06
 Reference value :  8.75026e-06
 Reference value :  8.75045e-06
 Reference value :  8.75087e-06
 Reference value :  8.75177e-06
 Reference value :  8.75222e-06
 Reference value :  8.75281e-06
 Reference value :  8.75351e-06
 Reference value :  8.75402e-06
 Reference value :  8.75514e-06
 Reference value :  8.75582e-06
 Reference value :  8.75800e-06
 Reference value :  8.76261e-06
 Reference value :  8.77357e-06
 Reference value :  8.81442e-06
 Reference value :  8.97188e-06
No. of Data Rows : 1339
ngspice-44 done
