
Note: Compatibility modes selected: hs a


Circuit: ** sch_path: /home/madra/cace/sar-adc-using-sky130-pdk/runs/run_2025-09-05_16-18-11/parameters/inl/run_4/sar_output.sch

option SCALE: Scale is set to 1e-06 for instance and model parameters
option SCALE: Scale is set to 1e-06 for instance and model parameters
option SCALE: Scale is set to 1e-06 for instance and model parameters
option SCALE: Scale is set to 1e-06 for instance and model parameters
Doing analysis at TEMP = 27.000000 and TNOM = 27.000000

Using KLU as Direct Linear Solver
Operating point simulation skipped by 'uic',
  now using transient initial conditions.
 Reference value :  1.00000e-12
 Reference value :  1.02386e-12
 Reference value :  1.07158e-12
 Reference value :  1.14190e-12
 Reference value :  1.21990e-12
 Reference value :  1.35798e-12
 Reference value :  1.57247e-12
 Reference value :  1.90210e-12
 Reference value :  2.53055e-12
 Reference value :  3.45801e-12
 Reference value :  4.88210e-12
 Reference value :  6.40387e-12
 Reference value :  8.74820e-12
 Reference value :  1.27818e-11
 Reference value :  1.82862e-11
 Reference value :  2.51899e-11
 Reference value :  3.42497e-11
 Reference value :  4.43021e-11
 Reference value :  6.01754e-11
 Reference value :  7.84861e-11
 Reference value :  1.00000e-10
 Reference value :  1.00414e-10
 Reference value :  1.01243e-10
 Reference value :  1.02901e-10
 Reference value :  1.06183e-10
 Reference value :  1.12748e-10
 Reference value :  1.25877e-10
 Reference value :  1.52134e-10
 Reference value :  1.89519e-10
 Reference value :  2.36672e-10
 Reference value :  3.04332e-10
 Reference value :  4.24535e-10
 Reference value :  6.56409e-10
 Reference value :  9.38042e-10
 Reference value :  1.37398e-09
 Reference value :  1.85638e-09
 Reference value :  2.62688e-09
 Reference value :  3.48226e-09
 Reference value :  4.26866e-09
 Reference value :  5.13857e-09
 Reference value :  5.98529e-09
 Reference value :  6.87141e-09
 Reference value :  7.90317e-09
 Reference value :  8.92217e-09
 Reference value :  9.98789e-09
 Reference value :  1.07619e-08
 Reference value :  1.15927e-08
 Reference value :  1.25837e-08
 Reference value :  1.35284e-08
 Reference value :  1.45295e-08
 Reference value :  1.57205e-08
 Reference value :  1.68493e-08
 Reference value :  1.81126e-08
 Reference value :  1.93703e-08
 Reference value :  2.08414e-08
 Reference value :  2.27409e-08
 Reference value :  2.39307e-08
 Reference value :  2.56693e-08
 Reference value :  2.73877e-08
 Reference value :  2.97619e-08
 Reference value :  3.23274e-08
 Reference value :  3.50281e-08
 Reference value :  4.04294e-08
 Reference value :  4.81291e-08
 Reference value :  6.26860e-08
 Reference value :  9.17999e-08
 Reference value :  1.26287e-07
 Reference value :  1.89176e-07
 Reference value :  2.50100e-07
 Reference value :  2.50110e-07
 Reference value :  2.50130e-07
 Reference value :  2.50170e-07
 Reference value :  2.50200e-07
 Reference value :  2.50201e-07
 Reference value :  2.50202e-07
 Reference value :  2.50204e-07
 Reference value :  2.50208e-07
 Reference value :  2.50216e-07
 Reference value :  2.50232e-07
 Reference value :  2.50265e-07
 Reference value :  2.50331e-07
 Reference value :  2.50412e-07
 Reference value :  2.50575e-07
 Reference value :  2.50741e-07
 Reference value :  2.51073e-07
 Reference value :  2.51459e-07
 Reference value :  2.52119e-07
 Reference value :  2.52784e-07
 Reference value :  2.53506e-07
 Reference value :  2.54463e-07
 Reference value :  2.55477e-07
 Reference value :  2.56513e-07
 Reference value :  2.57710e-07
 Reference value :  2.58913e-07
 Reference value :  2.60089e-07
 Reference value :  2.61421e-07
 Reference value :  2.63123e-07
 Reference value :  2.65860e-07
 Reference value :  2.69959e-07
 Reference value :  2.77745e-07
 Reference value :  2.91060e-07
 Reference value :  3.15786e-07
 Reference value :  3.60442e-07
 Reference value :  4.41168e-07
 Reference value :  5.00000e-07
 Reference value :  5.00010e-07
 Reference value :  5.00030e-07
 Reference value :  5.00070e-07
 Reference value :  5.00100e-07
 Reference value :  5.00101e-07
 Reference value :  5.00102e-07
 Reference value :  5.00104e-07
 Reference value :  5.00108e-07
 Reference value :  5.00116e-07
 Reference value :  5.00133e-07
 Reference value :  5.00166e-07
 Reference value :  5.00232e-07
 Reference value :  5.00364e-07
 Reference value :  5.00562e-07
 Reference value :  5.00958e-07
 Reference value :  5.01468e-07
 Reference value :  5.02004e-07
 Reference value :  5.02765e-07
 Reference value :  5.03571e-07
 Reference value :  5.04319e-07
 Reference value :  5.05131e-07
 Reference value :  5.06130e-07
 Reference value :  5.07181e-07
 Reference value :  5.08420e-07
 Reference value :  5.09734e-07
 Reference value :  5.11701e-07
 Reference value :  5.13522e-07
 Reference value :  5.15548e-07
 Reference value :  5.17492e-07
 Reference value :  5.19715e-07
 Reference value :  5.24161e-07
 Reference value :  5.27116e-07
 Reference value :  5.30575e-07
 Reference value :  5.34387e-07
 Reference value :  5.38423e-07
 Reference value :  5.44642e-07
 Reference value :  5.50597e-07
 Reference value :  5.60296e-07
 Reference value :  5.74323e-07
 Reference value :  6.02378e-07
 Reference value :  6.58486e-07
 Reference value :  6.98529e-07
 Reference value :  7.30638e-07
 Reference value :  7.45977e-07
 Reference value :  7.50100e-07
 Reference value :  7.50110e-07
 Reference value :  7.50130e-07
 Reference value :  7.50170e-07
 Reference value :  7.50200e-07
 Reference value :  7.50201e-07
 Reference value :  7.50202e-07
 Reference value :  7.50204e-07
 Reference value :  7.50208e-07
 Reference value :  7.50216e-07
 Reference value :  7.50233e-07
 Reference value :  7.50266e-07
 Reference value :  7.50333e-07
 Reference value :  7.50467e-07
 Reference value :  7.50644e-07
 Reference value :  7.50914e-07
 Reference value :  7.51453e-07
 Reference value :  7.52099e-07
 Reference value :  7.52800e-07
 Reference value :  7.53529e-07
 Reference value :  7.54426e-07
 Reference value :  7.55525e-07
 Reference value :  7.56676e-07
 Reference value :  7.57726e-07
 Reference value :  7.58837e-07
 Reference value :  7.59834e-07
 Reference value :  7.60890e-07
 Reference value :  7.62134e-07
 Reference value :  7.63439e-07
 Reference value :  7.65008e-07
 Reference value :  7.66966e-07
 Reference value :  7.69596e-07
 Reference value :  7.72740e-07
 Reference value :  7.77669e-07
 Reference value :  7.87527e-07
 Reference value :  8.04828e-07
 Reference value :  8.36753e-07
 Reference value :  8.96569e-07
 Reference value :  1.00000e-06
 Reference value :  1.00001e-06
 Reference value :  1.00003e-06
 Reference value :  1.00007e-06
 Reference value :  1.00010e-06
 Reference value :  1.00010e-06
 Reference value :  1.00010e-06
 Reference value :  1.00010e-06
 Reference value :  1.00011e-06
 Reference value :  1.00012e-06
 Reference value :  1.00013e-06
 Reference value :  1.00017e-06
 Reference value :  1.00023e-06
 Reference value :  1.00036e-06
 Reference value :  1.00056e-06
 Reference value :  1.00096e-06
 Reference value :  1.00147e-06
 Reference value :  1.00201e-06
 Reference value :  1.00276e-06
 Reference value :  1.00346e-06
 Reference value :  1.00420e-06
 Reference value :  1.00499e-06
 Reference value :  1.00587e-06
 Reference value :  1.00691e-06
 Reference value :  1.00768e-06
 Reference value :  1.00855e-06
 Reference value :  1.00939e-06
 Reference value :  1.01026e-06
 Reference value :  1.01143e-06
 Reference value :  1.01268e-06
 Reference value :  1.01518e-06
 Reference value :  1.01755e-06
 Reference value :  1.01942e-06
 Reference value :  1.02149e-06
 Reference value :  1.02436e-06
 Reference value :  1.02665e-06
 Reference value :  1.02867e-06
 Reference value :  1.03015e-06
 Reference value :  1.03158e-06
 Reference value :  1.03326e-06
 Reference value :  1.03495e-06
 Reference value :  1.03695e-06
 Reference value :  1.03995e-06
 Reference value :  1.04325e-06
 Reference value :  1.04986e-06
 Reference value :  1.05904e-06
 Reference value :  1.06880e-06
 Reference value :  1.07562e-06
 Reference value :  1.08202e-06
 Reference value :  1.08673e-06
 Reference value :  1.09252e-06
 Reference value :  1.10345e-06
 Reference value :  1.11567e-06
 Reference value :  1.13044e-06
 Reference value :  1.14985e-06
 Reference value :  1.18756e-06
 Reference value :  1.23833e-06
 Reference value :  1.25010e-06
 Reference value :  1.25011e-06
 Reference value :  1.25013e-06
 Reference value :  1.25017e-06
 Reference value :  1.25020e-06
 Reference value :  1.25020e-06
 Reference value :  1.25020e-06
 Reference value :  1.25020e-06
 Reference value :  1.25021e-06
 Reference value :  1.25022e-06
 Reference value :  1.25023e-06
 Reference value :  1.25027e-06
 Reference value :  1.25033e-06
 Reference value :  1.25047e-06
 Reference value :  1.25064e-06
 Reference value :  1.25091e-06
 Reference value :  1.25145e-06
 Reference value :  1.25210e-06
 Reference value :  1.25288e-06
 Reference value :  1.25358e-06
 Reference value :  1.25455e-06
 Reference value :  1.25561e-06
 Reference value :  1.25655e-06
 Reference value :  1.25765e-06
 Reference value :  1.25878e-06
 Reference value :  1.25995e-06
 Reference value :  1.26148e-06
 Reference value :  1.26406e-06
 Reference value :  1.26750e-06
 Reference value :  1.27285e-06
 Reference value :  1.28356e-06
 Reference value :  1.29991e-06
 Reference value :  1.33262e-06
 Reference value :  1.39802e-06
 Reference value :  1.50000e-06
 Reference value :  1.50001e-06
 Reference value :  1.50003e-06
 Reference value :  1.50007e-06
 Reference value :  1.50010e-06
 Reference value :  1.50010e-06
 Reference value :  1.50010e-06
 Reference value :  1.50010e-06
 Reference value :  1.50011e-06
 Reference value :  1.50012e-06
 Reference value :  1.50013e-06
 Reference value :  1.50017e-06
 Reference value :  1.50023e-06
 Reference value :  1.50036e-06
 Reference value :  1.50056e-06
 Reference value :  1.50095e-06
 Reference value :  1.50146e-06
 Reference value :  1.50200e-06
 Reference value :  1.50275e-06
 Reference value :  1.50344e-06
 Reference value :  1.50417e-06
 Reference value :  1.50501e-06
 Reference value :  1.50593e-06
 Reference value :  1.50689e-06
 Reference value :  1.50789e-06
 Reference value :  1.50945e-06
 Reference value :  1.51099e-06
 Reference value :  1.51307e-06
 Reference value :  1.51465e-06
 Reference value :  1.51637e-06
 Reference value :  1.51844e-06
 Reference value :  1.52066e-06
 Reference value :  1.52444e-06
 Reference value :  1.52946e-06
 Reference value :  1.53778e-06
 Reference value :  1.55131e-06
 Reference value :  1.57440e-06
 Reference value :  1.62039e-06
 Reference value :  1.70003e-06
 Reference value :  1.75010e-06
 Reference value :  1.75011e-06
 Reference value :  1.75013e-06
 Reference value :  1.75017e-06
 Reference value :  1.75020e-06
 Reference value :  1.75020e-06
 Reference value :  1.75020e-06
 Reference value :  1.75020e-06
 Reference value :  1.75021e-06
 Reference value :  1.75022e-06
 Reference value :  1.75023e-06
 Reference value :  1.75027e-06
 Reference value :  1.75033e-06
 Reference value :  1.75047e-06
 Reference value :  1.75064e-06
 Reference value :  1.75091e-06
 Reference value :  1.75145e-06
 Reference value :  1.75210e-06
 Reference value :  1.75288e-06
 Reference value :  1.75358e-06
 Reference value :  1.75454e-06
 Reference value :  1.75561e-06
 Reference value :  1.75653e-06
 Reference value :  1.75762e-06
 Reference value :  1.75852e-06
 Reference value :  1.75951e-06
 Reference value :  1.76068e-06
 Reference value :  1.76201e-06
 Reference value :  1.76467e-06
 Reference value :  1.76854e-06
 Reference value :  1.77527e-06
 Reference value :  1.78843e-06
 Reference value :  1.81008e-06
 Reference value :  1.85339e-06
 Reference value :  1.94001e-06
 Reference value :  2.00000e-06
 Reference value :  2.00001e-06
 Reference value :  2.00003e-06
 Reference value :  2.00007e-06
 Reference value :  2.00010e-06
 Reference value :  2.00010e-06
 Reference value :  2.00010e-06
 Reference value :  2.00010e-06
 Reference value :  2.00011e-06
 Reference value :  2.00012e-06
 Reference value :  2.00013e-06
 Reference value :  2.00017e-06
 Reference value :  2.00023e-06
 Reference value :  2.00036e-06
 Reference value :  2.00056e-06
 Reference value :  2.00095e-06
 Reference value :  2.00146e-06
 Reference value :  2.00200e-06
 Reference value :  2.00275e-06
 Reference value :  2.00345e-06
 Reference value :  2.00418e-06
 Reference value :  2.00498e-06
 Reference value :  2.00586e-06
 Reference value :  2.00661e-06
 Reference value :  2.00746e-06
 Reference value :  2.00819e-06
 Reference value :  2.00904e-06
 Reference value :  2.01012e-06
 Reference value :  2.01127e-06
 Reference value :  2.01328e-06
 Reference value :  2.01572e-06
 Reference value :  2.01879e-06
 Reference value :  2.02225e-06
 Reference value :  2.02507e-06
 Reference value :  2.02734e-06
 Reference value :  2.02947e-06
 Reference value :  2.03160e-06
 Reference value :  2.03377e-06
 Reference value :  2.03632e-06
 Reference value :  2.03955e-06
 Reference value :  2.04499e-06
 Reference value :  2.05226e-06
 Reference value :  2.06481e-06
 Reference value :  2.08380e-06
 Reference value :  2.11356e-06
 Reference value :  2.16291e-06
 Reference value :  2.24261e-06
 Reference value :  2.25010e-06
 Reference value :  2.25011e-06
 Reference value :  2.25013e-06
 Reference value :  2.25017e-06
 Reference value :  2.25020e-06
 Reference value :  2.25020e-06
 Reference value :  2.25020e-06
 Reference value :  2.25020e-06
 Reference value :  2.25021e-06
 Reference value :  2.25022e-06
 Reference value :  2.25023e-06
 Reference value :  2.25027e-06
 Reference value :  2.25033e-06
 Reference value :  2.25047e-06
 Reference value :  2.25064e-06
 Reference value :  2.25091e-06
 Reference value :  2.25145e-06
 Reference value :  2.25210e-06
 Reference value :  2.25288e-06
 Reference value :  2.25358e-06
 Reference value :  2.25454e-06
 Reference value :  2.25561e-06
 Reference value :  2.25659e-06
 Reference value :  2.25771e-06
 Reference value :  2.25879e-06
 Reference value :  2.26041e-06
 Reference value :  2.26247e-06
 Reference value :  2.26506e-06
 Reference value :  2.26893e-06
 Reference value :  2.27570e-06
 Reference value :  2.28667e-06
 Reference value :  2.30514e-06
 Reference value :  2.34208e-06
 Reference value :  2.41464e-06
 Reference value :  2.50000e-06
 Reference value :  2.50001e-06
 Reference value :  2.50003e-06
 Reference value :  2.50007e-06
 Reference value :  2.50010e-06
 Reference value :  2.50010e-06
 Reference value :  2.50010e-06
 Reference value :  2.50010e-06
 Reference value :  2.50011e-06
 Reference value :  2.50012e-06
 Reference value :  2.50013e-06
 Reference value :  2.50017e-06
 Reference value :  2.50023e-06
 Reference value :  2.50036e-06
 Reference value :  2.50055e-06
 Reference value :  2.50091e-06
 Reference value :  2.50141e-06
 Reference value :  2.50194e-06
 Reference value :  2.50269e-06
 Reference value :  2.50338e-06
 Reference value :  2.50409e-06
 Reference value :  2.50487e-06
 Reference value :  2.50575e-06
 Reference value :  2.50670e-06
 Reference value :  2.50792e-06
 Reference value :  2.50945e-06
 Reference value :  2.51166e-06
 Reference value :  2.51318e-06
 Reference value :  2.51483e-06
 Reference value :  2.51649e-06
 Reference value :  2.51879e-06
 Reference value :  2.52131e-06
 Reference value :  2.52556e-06
 Reference value :  2.53161e-06
 Reference value :  2.54135e-06
 Reference value :  2.56042e-06
 Reference value :  2.59024e-06
 Reference value :  2.64548e-06
 Reference value :  2.74009e-06
 Reference value :  2.75010e-06
 Reference value :  2.75011e-06
 Reference value :  2.75013e-06
 Reference value :  2.75017e-06
 Reference value :  2.75020e-06
 Reference value :  2.75020e-06
 Reference value :  2.75020e-06
 Reference value :  2.75020e-06
 Reference value :  2.75021e-06
 Reference value :  2.75022e-06
 Reference value :  2.75023e-06
 Reference value :  2.75027e-06
 Reference value :  2.75033e-06
 Reference value :  2.75047e-06
 Reference value :  2.75064e-06
 Reference value :  2.75091e-06
 Reference value :  2.75145e-06
 Reference value :  2.75210e-06
 Reference value :  2.75287e-06
 Reference value :  2.75358e-06
 Reference value :  2.75455e-06
 Reference value :  2.75549e-06
 Reference value :  2.75652e-06
 Reference value :  2.75754e-06
 Reference value :  2.75847e-06
 Reference value :  2.75954e-06
 Reference value :  2.76077e-06
 Reference value :  2.76322e-06
 Reference value :  2.76637e-06
 Reference value :  2.77092e-06
 Reference value :  2.77913e-06
 Reference value :  2.79351e-06
 Reference value :  2.81739e-06
 Reference value :  2.86514e-06
 Reference value :  2.96066e-06
 Reference value :  3.00000e-06
 Reference value :  3.00001e-06
 Reference value :  3.00003e-06
 Reference value :  3.00007e-06
 Reference value :  3.00010e-06
 Reference value :  3.00010e-06
 Reference value :  3.00010e-06
 Reference value :  3.00010e-06
 Reference value :  3.00011e-06
 Reference value :  3.00012e-06
 Reference value :  3.00013e-06
 Reference value :  3.00017e-06
 Reference value :  3.00023e-06
 Reference value :  3.00036e-06
 Reference value :  3.00055e-06
 Reference value :  3.00091e-06
 Reference value :  3.00141e-06
 Reference value :  3.00194e-06
 Reference value :  3.00269e-06
 Reference value :  3.00338e-06
 Reference value :  3.00409e-06
 Reference value :  3.00487e-06
 Reference value :  3.00574e-06
 Reference value :  3.00666e-06
 Reference value :  3.00763e-06
 Reference value :  3.00843e-06
 Reference value :  3.00935e-06
 Reference value :  3.01050e-06
 Reference value :  3.01173e-06
 Reference value :  3.01404e-06
 Reference value :  3.01621e-06
 Reference value :  3.01901e-06
 Reference value :  3.02130e-06
 Reference value :  3.02336e-06
 Reference value :  3.02481e-06
 Reference value :  3.02635e-06
 Reference value :  3.02794e-06
 Reference value :  3.02956e-06
 Reference value :  3.03143e-06
 Reference value :  3.03466e-06
 Reference value :  3.03764e-06
 Reference value :  3.04359e-06
 Reference value :  3.05269e-06
 Reference value :  3.06680e-06
 Reference value :  3.08746e-06
 Reference value :  3.12878e-06
 Reference value :  3.17507e-06
 Reference value :  3.20950e-06
 Reference value :  3.24915e-06
 Reference value :  3.25010e-06
 Reference value :  3.25011e-06
 Reference value :  3.25013e-06
 Reference value :  3.25017e-06
 Reference value :  3.25020e-06
 Reference value :  3.25020e-06
 Reference value :  3.25020e-06
 Reference value :  3.25020e-06
 Reference value :  3.25021e-06
 Reference value :  3.25022e-06
 Reference value :  3.25023e-06
 Reference value :  3.25027e-06
 Reference value :  3.25033e-06
 Reference value :  3.25047e-06
 Reference value :  3.25064e-06
 Reference value :  3.25091e-06
 Reference value :  3.25145e-06
 Reference value :  3.25210e-06
 Reference value :  3.25287e-06
 Reference value :  3.25358e-06
 Reference value :  3.25455e-06
 Reference value :  3.25561e-06
 Reference value :  3.25650e-06
 Reference value :  3.25747e-06
 Reference value :  3.25845e-06
 Reference value :  3.25980e-06
 Reference value :  3.26122e-06
 Reference value :  3.26386e-06
 Reference value :  3.26712e-06
 Reference value :  3.27229e-06
 Reference value :  3.28264e-06
 Reference value :  3.29856e-06
 Reference value :  3.33006e-06
 Reference value :  3.39306e-06
 Reference value :  3.50000e-06
 Reference value :  3.50001e-06
 Reference value :  3.50003e-06
 Reference value :  3.50007e-06
 Reference value :  3.50010e-06
 Reference value :  3.50010e-06
 Reference value :  3.50010e-06
 Reference value :  3.50010e-06
 Reference value :  3.50011e-06
 Reference value :  3.50012e-06
 Reference value :  3.50013e-06
 Reference value :  3.50017e-06
 Reference value :  3.50023e-06
 Reference value :  3.50036e-06
 Reference value :  3.50055e-06
 Reference value :  3.50091e-06
 Reference value :  3.50141e-06
 Reference value :  3.50194e-06
 Reference value :  3.50269e-06
 Reference value :  3.50337e-06
 Reference value :  3.50409e-06
 Reference value :  3.50490e-06
 Reference value :  3.50579e-06
 Reference value :  3.50679e-06
 Reference value :  3.50791e-06
 Reference value :  3.50964e-06
 Reference value :  3.51110e-06
 Reference value :  3.51275e-06
 Reference value :  3.51447e-06
 Reference value :  3.51626e-06
 Reference value :  3.51804e-06
 Reference value :  3.52065e-06
 Reference value :  3.52342e-06
 Reference value :  3.52835e-06
 Reference value :  3.53563e-06
 Reference value :  3.54783e-06
 Reference value :  3.56967e-06
 Reference value :  3.60636e-06
 Reference value :  3.67333e-06
 Reference value :  3.75010e-06
 Reference value :  3.75011e-06
 Reference value :  3.75013e-06
 Reference value :  3.75017e-06
 Reference value :  3.75020e-06
 Reference value :  3.75020e-06
 Reference value :  3.75020e-06
 Reference value :  3.75020e-06
 Reference value :  3.75021e-06
 Reference value :  3.75022e-06
 Reference value :  3.75023e-06
 Reference value :  3.75027e-06
 Reference value :  3.75033e-06
 Reference value :  3.75047e-06
 Reference value :  3.75064e-06
 Reference value :  3.75091e-06
 Reference value :  3.75145e-06
 Reference value :  3.75210e-06
 Reference value :  3.75288e-06
 Reference value :  3.75358e-06
 Reference value :  3.75454e-06
 Reference value :  3.75561e-06
 Reference value :  3.75651e-06
 Reference value :  3.75749e-06
 Reference value :  3.75842e-06
 Reference value :  3.75944e-06
 Reference value :  3.76062e-06
 Reference value :  3.76298e-06
 Reference value :  3.76610e-06
 Reference value :  3.77060e-06
 Reference value :  3.77848e-06
 Reference value :  3.79425e-06
 Reference value :  3.82426e-06
 Reference value :  3.88429e-06
 Reference value :  4.00000e-06
 Reference value :  4.00001e-06
 Reference value :  4.00003e-06
 Reference value :  4.00007e-06
 Reference value :  4.00010e-06
 Reference value :  4.00010e-06
 Reference value :  4.00010e-06
 Reference value :  4.00010e-06
 Reference value :  4.00011e-06
 Reference value :  4.00012e-06
 Reference value :  4.00013e-06
 Reference value :  4.00017e-06
 Reference value :  4.00023e-06
 Reference value :  4.00036e-06
 Reference value :  4.00055e-06
 Reference value :  4.00091e-06
 Reference value :  4.00141e-06
 Reference value :  4.00194e-06
 Reference value :  4.00269e-06
 Reference value :  4.00337e-06
 Reference value :  4.00409e-06
 Reference value :  4.00488e-06
 Reference value :  4.00575e-06
 Reference value :  4.00657e-06
 Reference value :  4.00743e-06
 Reference value :  4.00840e-06
 Reference value :  4.00935e-06
 Reference value :  4.01035e-06
 Reference value :  4.01180e-06
 Reference value :  4.01329e-06
 Reference value :  4.01576e-06
 Reference value :  4.01845e-06
 Reference value :  4.02085e-06
 Reference value :  4.02343e-06
 Reference value :  4.02534e-06
 Reference value :  4.02717e-06
 Reference value :  4.02881e-06
 Reference value :  4.03057e-06
 Reference value :  4.03267e-06
 Reference value :  4.03526e-06
 Reference value :  4.03843e-06
 Reference value :  4.04351e-06
 Reference value :  4.05063e-06
 Reference value :  4.05933e-06
 Reference value :  4.06857e-06
 Reference value :  4.07743e-06
 Reference value :  4.08690e-06
 Reference value :  4.09348e-06
 Reference value :  4.09999e-06
 Reference value :  4.10761e-06
 Reference value :  4.11448e-06
 Reference value :  4.12129e-06
 Reference value :  4.12921e-06
 Reference value :  4.14321e-06
 Reference value :  4.15851e-06
 Reference value :  4.18324e-06
 Reference value :  4.22226e-06
 Reference value :  4.25010e-06
 Reference value :  4.25011e-06
 Reference value :  4.25013e-06
 Reference value :  4.25017e-06
 Reference value :  4.25020e-06
 Reference value :  4.25020e-06
 Reference value :  4.25020e-06
 Reference value :  4.25020e-06
 Reference value :  4.25021e-06
 Reference value :  4.25022e-06
 Reference value :  4.25023e-06
 Reference value :  4.25027e-06
 Reference value :  4.25033e-06
 Reference value :  4.25042e-06
 Reference value :  4.25058e-06
 Reference value :  4.25077e-06
 Reference value :  4.25109e-06
 Reference value :  4.25172e-06
 Reference value :  4.25234e-06
 Reference value :  4.25304e-06
 Reference value :  4.25378e-06
 Reference value :  4.25472e-06
 Reference value :  4.25551e-06
 Reference value :  4.25641e-06
 Reference value :  4.25730e-06
 Reference value :  4.25824e-06
 Reference value :  4.25980e-06
 Reference value :  4.26135e-06
 Reference value :  4.26398e-06
 Reference value :  4.26727e-06
 Reference value :  4.27242e-06
 Reference value :  4.28273e-06
 Reference value :  4.30335e-06
 Reference value :  4.33369e-06
 Reference value :  4.36352e-06
 Reference value :  4.38496e-06
 Reference value :  4.40502e-06
 Reference value :  4.42522e-06
 Reference value :  4.44410e-06
 Reference value :  4.46667e-06
 Reference value :  4.50000e-06
 Reference value :  4.50001e-06
 Reference value :  4.50003e-06
 Reference value :  4.50007e-06
 Reference value :  4.50010e-06
 Reference value :  4.50010e-06
 Reference value :  4.50010e-06
 Reference value :  4.50010e-06
 Reference value :  4.50011e-06
 Reference value :  4.50012e-06
 Reference value :  4.50013e-06
 Reference value :  4.50017e-06
 Reference value :  4.50023e-06
 Reference value :  4.50036e-06
 Reference value :  4.50062e-06
 Reference value :  4.50109e-06
 Reference value :  4.50174e-06
 Reference value :  4.50246e-06
 Reference value :  4.50308e-06
 Reference value :  4.50385e-06
 Reference value :  4.50467e-06
 Reference value :  4.50554e-06
 Reference value :  4.50641e-06
 Reference value :  4.50745e-06
 Reference value :  4.50872e-06
 Reference value :  4.51034e-06
 Reference value :  4.51154e-06
 Reference value :  4.51294e-06
 Reference value :  4.51457e-06
 Reference value :  4.51625e-06
 Reference value :  4.51802e-06
 Reference value :  4.52157e-06
 Reference value :  4.52867e-06
 Reference value :  4.54208e-06
 Reference value :  4.56889e-06
 Reference value :  4.62253e-06
 Reference value :  4.72980e-06
 Reference value :  4.75010e-06
 Reference value :  4.75011e-06
 Reference value :  4.75013e-06
 Reference value :  4.75017e-06
 Reference value :  4.75020e-06
 Reference value :  4.75020e-06
 Reference value :  4.75020e-06
 Reference value :  4.75020e-06
 Reference value :  4.75021e-06
 Reference value :  4.75022e-06
 Reference value :  4.75023e-06
 Reference value :  4.75027e-06
 Reference value :  4.75033e-06
 Reference value :  4.75042e-06
 Reference value :  4.75058e-06
 Reference value :  4.75077e-06
 Reference value :  4.75108e-06
 Reference value :  4.75171e-06
 Reference value :  4.75233e-06
 Reference value :  4.75303e-06
 Reference value :  4.75377e-06
 Reference value :  4.75471e-06
 Reference value :  4.75554e-06
 Reference value :  4.75647e-06
 Reference value :  4.75729e-06
 Reference value :  4.75819e-06
 Reference value :  4.75919e-06
 Reference value :  4.76033e-06
 Reference value :  4.76262e-06
 Reference value :  4.76557e-06
 Reference value :  4.76977e-06
 Reference value :  4.77686e-06
 Reference value :  4.79102e-06
 Reference value :  4.81935e-06
 Reference value :  4.87601e-06
 Reference value :  4.98932e-06
 Reference value :  5.00000e-06
 Reference value :  5.00001e-06
 Reference value :  5.00003e-06
 Reference value :  5.00007e-06
 Reference value :  5.00010e-06
 Reference value :  5.00010e-06
 Reference value :  5.00010e-06
 Reference value :  5.00010e-06
 Reference value :  5.00011e-06
 Reference value :  5.00012e-06
 Reference value :  5.00013e-06
 Reference value :  5.00017e-06
 Reference value :  5.00023e-06
 Reference value :  5.00036e-06
 Reference value :  5.00062e-06
 Reference value :  5.00109e-06
 Reference value :  5.00174e-06
 Reference value :  5.00246e-06
 Reference value :  5.00309e-06
 Reference value :  5.00386e-06
 Reference value :  5.00482e-06
 Reference value :  5.00568e-06
 Reference value :  5.00649e-06
 Reference value :  5.00735e-06
 Reference value :  5.00814e-06
 Reference value :  5.00900e-06
 Reference value :  5.01017e-06
 Reference value :  5.01140e-06
 Reference value :  5.01384e-06
 Reference value :  5.01640e-06
 Reference value :  5.01954e-06
 Reference value :  5.02293e-06
 Reference value :  5.02644e-06
 Reference value :  5.02896e-06
 Reference value :  5.03132e-06
 Reference value :  5.03399e-06
 Reference value :  5.03662e-06
 Reference value :  5.03928e-06
 Reference value :  5.04315e-06
 Reference value :  5.04764e-06
 Reference value :  5.05273e-06
 Reference value :  5.05828e-06
 Reference value :  5.06526e-06
 Reference value :  5.06989e-06
 Reference value :  5.07477e-06
 Reference value :  5.08138e-06
 Reference value :  5.08752e-06
 Reference value :  5.09561e-06
 Reference value :  5.10289e-06
 Reference value :  5.11068e-06
 Reference value :  5.12626e-06
 Reference value :  5.14247e-06
 Reference value :  5.16988e-06
 Reference value :  5.21528e-06
 Reference value :  5.25010e-06
 Reference value :  5.25011e-06
 Reference value :  5.25013e-06
 Reference value :  5.25017e-06
 Reference value :  5.25020e-06
 Reference value :  5.25020e-06
 Reference value :  5.25020e-06
 Reference value :  5.25020e-06
 Reference value :  5.25021e-06
 Reference value :  5.25022e-06
 Reference value :  5.25023e-06
 Reference value :  5.25027e-06
 Reference value :  5.25033e-06
 Reference value :  5.25042e-06
 Reference value :  5.25058e-06
 Reference value :  5.25076e-06
 Reference value :  5.25108e-06
 Reference value :  5.25172e-06
 Reference value :  5.25234e-06
 Reference value :  5.25304e-06
 Reference value :  5.25378e-06
 Reference value :  5.25473e-06
 Reference value :  5.25576e-06
 Reference value :  5.25651e-06
 Reference value :  5.25740e-06
 Reference value :  5.25835e-06
 Reference value :  5.25949e-06
 Reference value :  5.26069e-06
 Reference value :  5.26311e-06
 Reference value :  5.26621e-06
 Reference value :  5.27072e-06
 Reference value :  5.27931e-06
 Reference value :  5.29648e-06
 Reference value :  5.33082e-06
 Reference value :  5.39950e-06
 Reference value :  5.50000e-06
 Reference value :  5.50001e-06
 Reference value :  5.50003e-06
 Reference value :  5.50007e-06
 Reference value :  5.50010e-06
 Reference value :  5.50010e-06
 Reference value :  5.50010e-06
 Reference value :  5.50010e-06
 Reference value :  5.50011e-06
 Reference value :  5.50012e-06
 Reference value :  5.50013e-06
 Reference value :  5.50017e-06
 Reference value :  5.50023e-06
 Reference value :  5.50036e-06
 Reference value :  5.50062e-06
 Reference value :  5.50109e-06
 Reference value :  5.50174e-06
 Reference value :  5.50246e-06
 Reference value :  5.50308e-06
 Reference value :  5.50385e-06
 Reference value :  5.50481e-06
 Reference value :  5.50576e-06
 Reference value :  5.50670e-06
 Reference value :  5.50784e-06
 Reference value :  5.50927e-06
 Reference value :  5.51087e-06
 Reference value :  5.51235e-06
 Reference value :  5.51371e-06
 Reference value :  5.51520e-06
 Reference value :  5.51710e-06
 Reference value :  5.51883e-06
 Reference value :  5.52228e-06
 Reference value :  5.52727e-06
 Reference value :  5.53627e-06
 Reference value :  5.55427e-06
 Reference value :  5.58509e-06
 Reference value :  5.64672e-06
 Reference value :  5.75010e-06
 Reference value :  5.75011e-06
 Reference value :  5.75013e-06
 Reference value :  5.75017e-06
 Reference value :  5.75020e-06
 Reference value :  5.75020e-06
 Reference value :  5.75020e-06
 Reference value :  5.75020e-06
 Reference value :  5.75021e-06
 Reference value :  5.75022e-06
 Reference value :  5.75023e-06
 Reference value :  5.75027e-06
 Reference value :  5.75033e-06
 Reference value :  5.75041e-06
 Reference value :  5.75058e-06
 Reference value :  5.75077e-06
 Reference value :  5.75108e-06
 Reference value :  5.75170e-06
 Reference value :  5.75233e-06
 Reference value :  5.75303e-06
 Reference value :  5.75376e-06
 Reference value :  5.75470e-06
 Reference value :  5.75573e-06
 Reference value :  5.75649e-06
 Reference value :  5.75736e-06
 Reference value :  5.75836e-06
 Reference value :  5.75928e-06
 Reference value :  5.76039e-06
 Reference value :  5.76161e-06
 Reference value :  5.76313e-06
 Reference value :  5.76469e-06
 Reference value :  5.76690e-06
 Reference value :  5.76938e-06
 Reference value :  5.77360e-06
 Reference value :  5.78156e-06
 Reference value :  5.79370e-06
 Reference value :  5.81669e-06
 Reference value :  5.85504e-06
 Reference value :  5.92220e-06
 Reference value :  6.00000e-06
 Reference value :  6.00001e-06
 Reference value :  6.00003e-06
 Reference value :  6.00007e-06
 Reference value :  6.00010e-06
 Reference value :  6.00010e-06
 Reference value :  6.00010e-06
 Reference value :  6.00010e-06
 Reference value :  6.00011e-06
 Reference value :  6.00012e-06
 Reference value :  6.00013e-06
 Reference value :  6.00017e-06
 Reference value :  6.00023e-06
 Reference value :  6.00036e-06
 Reference value :  6.00062e-06
 Reference value :  6.00109e-06
 Reference value :  6.00174e-06
 Reference value :  6.00246e-06
 Reference value :  6.00309e-06
 Reference value :  6.00385e-06
 Reference value :  6.00482e-06
 Reference value :  6.00571e-06
 Reference value :  6.00666e-06
 Reference value :  6.00761e-06
 Reference value :  6.00855e-06
 Reference value :  6.00956e-06
 Reference value :  6.01080e-06
 Reference value :  6.01201e-06
 Reference value :  6.01443e-06
 Reference value :  6.01700e-06
 Reference value :  6.01891e-06
 Reference value :  6.02105e-06
 Reference value :  6.02327e-06
 Reference value :  6.02586e-06
 Reference value :  6.02793e-06
 Reference value :  6.02946e-06
 Reference value :  6.03107e-06
 Reference value :  6.03283e-06
 Reference value :  6.03483e-06
 Reference value :  6.03692e-06
 Reference value :  6.03996e-06
 Reference value :  6.04395e-06
 Reference value :  6.04842e-06
 Reference value :  6.05588e-06
 Reference value :  6.06377e-06
 Reference value :  6.07441e-06
 Reference value :  6.08864e-06
 Reference value :  6.10424e-06
 Reference value :  6.11832e-06
 Reference value :  6.13781e-06
 Reference value :  6.15601e-06
 Reference value :  6.19239e-06
 Reference value :  6.23441e-06
 Reference value :  6.25010e-06
 Reference value :  6.25011e-06
 Reference value :  6.25013e-06
 Reference value :  6.25017e-06
 Reference value :  6.25020e-06
 Reference value :  6.25020e-06
 Reference value :  6.25020e-06
 Reference value :  6.25020e-06
 Reference value :  6.25021e-06
 Reference value :  6.25022e-06
 Reference value :  6.25023e-06
 Reference value :  6.25027e-06
 Reference value :  6.25033e-06
 Reference value :  6.25041e-06
 Reference value :  6.25058e-06
 Reference value :  6.25076e-06
 Reference value :  6.25106e-06
 Reference value :  6.25166e-06
 Reference value :  6.25229e-06
 Reference value :  6.25299e-06
 Reference value :  6.25371e-06
 Reference value :  6.25464e-06
 Reference value :  6.25566e-06
 Reference value :  6.25692e-06
 Reference value :  6.25795e-06
 Reference value :  6.25905e-06
 Reference value :  6.26023e-06
 Reference value :  6.26206e-06
 Reference value :  6.26388e-06
 Reference value :  6.26743e-06
 Reference value :  6.27261e-06
 Reference value :  6.28160e-06
 Reference value :  6.29849e-06
 Reference value :  6.32728e-06
 Reference value :  6.38485e-06
 Reference value :  6.49407e-06
 Reference value :  6.50000e-06
 Reference value :  6.50001e-06
 Reference value :  6.50003e-06
 Reference value :  6.50007e-06
 Reference value :  6.50010e-06
 Reference value :  6.50010e-06
 Reference value :  6.50010e-06
 Reference value :  6.50010e-06
 Reference value :  6.50011e-06
 Reference value :  6.50012e-06
 Reference value :  6.50013e-06
 Reference value :  6.50017e-06
 Reference value :  6.50023e-06
 Reference value :  6.50036e-06
 Reference value :  6.50062e-06
 Reference value :  6.50109e-06
 Reference value :  6.50174e-06
 Reference value :  6.50246e-06
 Reference value :  6.50308e-06
 Reference value :  6.50385e-06
 Reference value :  6.50480e-06
 Reference value :  6.50576e-06
 Reference value :  6.50669e-06
 Reference value :  6.50774e-06
 Reference value :  6.50885e-06
 Reference value :  6.51078e-06
 Reference value :  6.51257e-06
 Reference value :  6.51403e-06
 Reference value :  6.51565e-06
 Reference value :  6.51748e-06
 Reference value :  6.51946e-06
 Reference value :  6.52302e-06
 Reference value :  6.52795e-06
 Reference value :  6.53706e-06
 Reference value :  6.55213e-06
 Reference value :  6.58227e-06
 Reference value :  6.63691e-06
 Reference value :  6.74073e-06
 Reference value :  6.75010e-06
 Reference value :  6.75011e-06
 Reference value :  6.75013e-06
 Reference value :  6.75017e-06
 Reference value :  6.75020e-06
 Reference value :  6.75020e-06
 Reference value :  6.75020e-06
 Reference value :  6.75020e-06
 Reference value :  6.75021e-06
 Reference value :  6.75022e-06
 Reference value :  6.75023e-06
 Reference value :  6.75027e-06
 Reference value :  6.75033e-06
 Reference value :  6.75041e-06
 Reference value :  6.75058e-06
 Reference value :  6.75080e-06
 Reference value :  6.75107e-06
 Reference value :  6.75163e-06
 Reference value :  6.75225e-06
 Reference value :  6.75292e-06
 Reference value :  6.75364e-06
 Reference value :  6.75457e-06
 Reference value :  6.75558e-06
 Reference value :  6.75681e-06
 Reference value :  6.75777e-06
 Reference value :  6.75882e-06
 Reference value :  6.75984e-06
 Reference value :  6.76095e-06
 Reference value :  6.76217e-06
 Reference value :  6.76348e-06
 Reference value :  6.76498e-06
 Reference value :  6.76746e-06
 Reference value :  6.77013e-06
 Reference value :  6.77422e-06
 Reference value :  6.78053e-06
 Reference value :  6.79315e-06
 Reference value :  6.81805e-06
 Reference value :  6.86324e-06
 Reference value :  6.95363e-06
 Reference value :  7.00000e-06
 Reference value :  7.00001e-06
 Reference value :  7.00003e-06
 Reference value :  7.00007e-06
 Reference value :  7.00010e-06
 Reference value :  7.00010e-06
 Reference value :  7.00010e-06
 Reference value :  7.00010e-06
 Reference value :  7.00011e-06
 Reference value :  7.00012e-06
 Reference value :  7.00013e-06
 Reference value :  7.00017e-06
 Reference value :  7.00023e-06
 Reference value :  7.00036e-06
 Reference value :  7.00062e-06
 Reference value :  7.00109e-06
 Reference value :  7.00174e-06
 Reference value :  7.00246e-06
 Reference value :  7.00308e-06
 Reference value :  7.00385e-06
 Reference value :  7.00481e-06
 Reference value :  7.00571e-06
 Reference value :  7.00665e-06
 Reference value :  7.00738e-06
 Reference value :  7.00823e-06
 Reference value :  7.00909e-06
 Reference value :  7.00995e-06
 Reference value :  7.01104e-06
 Reference value :  7.01222e-06
 Reference value :  7.01456e-06
 Reference value :  7.01757e-06
 Reference value :  7.01961e-06
 Reference value :  7.02192e-06
 Reference value :  7.02399e-06
 Reference value :  7.02620e-06
 Reference value :  7.02807e-06
 Reference value :  7.02995e-06
 Reference value :  7.03164e-06
 Reference value :  7.03342e-06
 Reference value :  7.03559e-06
 Reference value :  7.03796e-06
 Reference value :  7.04121e-06
 Reference value :  7.04577e-06
 Reference value :  7.05246e-06
 Reference value :  7.06238e-06
 Reference value :  7.07910e-06
 Reference value :  7.10493e-06
 Reference value :  7.13920e-06
 Reference value :  7.17236e-06
 Reference value :  7.20789e-06
 Reference value :  7.25010e-06
 Reference value :  7.25011e-06
 Reference value :  7.25013e-06
 Reference value :  7.25017e-06
 Reference value :  7.25020e-06
 Reference value :  7.25020e-06
 Reference value :  7.25020e-06
 Reference value :  7.25020e-06
 Reference value :  7.25021e-06
 Reference value :  7.25022e-06
 Reference value :  7.25023e-06
 Reference value :  7.25027e-06
 Reference value :  7.25033e-06
 Reference value :  7.25042e-06
 Reference value :  7.25059e-06
 Reference value :  7.25077e-06
 Reference value :  7.25107e-06
 Reference value :  7.25167e-06
 Reference value :  7.25229e-06
 Reference value :  7.25299e-06
 Reference value :  7.25372e-06
 Reference value :  7.25465e-06
 Reference value :  7.25566e-06
 Reference value :  7.25659e-06
 Reference value :  7.25780e-06
 Reference value :  7.25891e-06
 Reference value :  7.26010e-06
 Reference value :  7.26183e-06
 Reference value :  7.26412e-06
 Reference value :  7.26805e-06
 Reference value :  7.27370e-06
 Reference value :  7.28499e-06
 Reference value :  7.30608e-06
 Reference value :  7.34739e-06
 Reference value :  7.43002e-06
 Reference value :  7.50000e-06
 Reference value :  7.50001e-06
 Reference value :  7.50003e-06
 Reference value :  7.50007e-06
 Reference value :  7.50010e-06
 Reference value :  7.50010e-06
 Reference value :  7.50010e-06
 Reference value :  7.50010e-06
 Reference value :  7.50011e-06
 Reference value :  7.50012e-06
 Reference value :  7.50013e-06
 Reference value :  7.50017e-06
 Reference value :  7.50023e-06
 Reference value :  7.50036e-06
 Reference value :  7.50062e-06
 Reference value :  7.50109e-06
 Reference value :  7.50171e-06
 Reference value :  7.50245e-06
 Reference value :  7.50308e-06
 Reference value :  7.50385e-06
 Reference value :  7.50475e-06
 Reference value :  7.50573e-06
 Reference value :  7.50663e-06
 Reference value :  7.50780e-06
 Reference value :  7.50900e-06
 Reference value :  7.51079e-06
 Reference value :  7.51289e-06
 Reference value :  7.51462e-06
 Reference value :  7.51640e-06
 Reference value :  7.51867e-06
 Reference value :  7.52098e-06
 Reference value :  7.52490e-06
 Reference value :  7.53028e-06
 Reference value :  7.53925e-06
 Reference value :  7.55370e-06
 Reference value :  7.57889e-06
 Reference value :  7.62350e-06
 Reference value :  7.70965e-06
 Reference value :  7.75010e-06
 Reference value :  7.75011e-06
 Reference value :  7.75013e-06
 Reference value :  7.75017e-06
 Reference value :  7.75020e-06
 Reference value :  7.75020e-06
 Reference value :  7.75020e-06
 Reference value :  7.75020e-06
 Reference value :  7.75021e-06
 Reference value :  7.75022e-06
 Reference value :  7.75023e-06
 Reference value :  7.75027e-06
 Reference value :  7.75033e-06
 Reference value :  7.75042e-06
 Reference value :  7.75059e-06
 Reference value :  7.75082e-06
 Reference value :  7.75109e-06
 Reference value :  7.75165e-06
 Reference value :  7.75226e-06
 Reference value :  7.75292e-06
 Reference value :  7.75365e-06
 Reference value :  7.75457e-06
 Reference value :  7.75558e-06
 Reference value :  7.75658e-06
 Reference value :  7.75763e-06
 Reference value :  7.75858e-06
 Reference value :  7.75957e-06
 Reference value :  7.76069e-06
 Reference value :  7.76192e-06
 Reference value :  7.76327e-06
 Reference value :  7.76483e-06
 Reference value :  7.76723e-06
 Reference value :  7.76986e-06
 Reference value :  7.77417e-06
 Reference value :  7.78114e-06
 Reference value :  7.79507e-06
 Reference value :  7.81925e-06
 Reference value :  7.86460e-06
 Reference value :  7.94875e-06
 Reference value :  8.00000e-06
 Reference value :  8.00001e-06
 Reference value :  8.00003e-06
 Reference value :  8.00007e-06
 Reference value :  8.00010e-06
 Reference value :  8.00010e-06
 Reference value :  8.00010e-06
 Reference value :  8.00010e-06
 Reference value :  8.00011e-06
 Reference value :  8.00012e-06
 Reference value :  8.00013e-06
 Reference value :  8.00017e-06
 Reference value :  8.00023e-06
 Reference value :  8.00036e-06
 Reference value :  8.00062e-06
 Reference value :  8.00109e-06
 Reference value :  8.00171e-06
 Reference value :  8.00245e-06
 Reference value :  8.00308e-06
 Reference value :  8.00385e-06
 Reference value :  8.00482e-06
 Reference value :  8.00575e-06
 Reference value :  8.00670e-06
 Reference value :  8.00746e-06
 Reference value :  8.00833e-06
 Reference value :  8.00927e-06
 Reference value :  8.01016e-06
 Reference value :  8.01155e-06
 Reference value :  8.01298e-06
 Reference value :  8.01431e-06
 Reference value :  8.01578e-06
 Reference value :  8.01703e-06
 Reference value :  8.01851e-06
 Reference value :  8.02000e-06
 Reference value :  8.02143e-06
 Reference value :  8.02428e-06
 Reference value :  8.02705e-06
 Reference value :  8.03002e-06
 Reference value :  8.03470e-06
 Reference value :  8.03919e-06
 Reference value :  8.04472e-06
 Reference value :  8.04851e-06
 Reference value :  8.05209e-06
 Reference value :  8.05695e-06
 Reference value :  8.06180e-06
 Reference value :  8.06706e-06
 Reference value :  8.07581e-06
 Reference value :  8.08850e-06
 Reference value :  8.10761e-06
 Reference value :  8.13819e-06
 Reference value :  8.18422e-06
 Reference value :  8.25010e-06
 Reference value :  8.25011e-06
 Reference value :  8.25013e-06
 Reference value :  8.25017e-06
 Reference value :  8.25020e-06
 Reference value :  8.25020e-06
 Reference value :  8.25020e-06
 Reference value :  8.25020e-06
 Reference value :  8.25021e-06
 Reference value :  8.25022e-06
 Reference value :  8.25023e-06
 Reference value :  8.25027e-06
 Reference value :  8.25033e-06
 Reference value :  8.25047e-06
 Reference value :  8.25064e-06
 Reference value :  8.25085e-06
 Reference value :  8.25127e-06
 Reference value :  8.25193e-06
 Reference value :  8.25261e-06
 Reference value :  8.25331e-06
 Reference value :  8.25422e-06
 Reference value :  8.25545e-06
 Reference value :  8.25660e-06
 Reference value :  8.25788e-06
 Reference value :  8.25952e-06
 Reference value :  8.26158e-06
 Reference value :  8.26424e-06
 Reference value :  8.26764e-06
 Reference value :  8.27256e-06
 Reference value :  8.28240e-06
 Reference value :  8.29623e-06
 Reference value :  8.32390e-06
 Reference value :  8.37924e-06
 Reference value :  8.48173e-06
 Reference value :  8.50000e-06
No. of Data Rows : 1412
ngspice-44 done
