
Note: Compatibility modes selected: hs a


Circuit: ** sch_path: /home/ece/cace/sar-adc-using-sky130-pdk/runs/run_2025-09-09_04-42-38/parameters/sampling_rate/run_00/sampling_rate.sch

option SCALE: Scale is set to 1e-06 for instance and model parameters
option SCALE: Scale is set to 1e-06 for instance and model parameters
option SCALE: Scale is set to 1e-06 for instance and model parameters
option SCALE: Scale is set to 1e-06 for instance and model parameters
Doing analysis at TEMP = 27.000000 and TNOM = 27.000000

Using KLU as Direct Linear Solver
Operating point simulation skipped by 'uic',
  now using transient initial conditions.
 Reference value :  1.00000e-12
 Reference value :  1.02772e-12
 Reference value :  1.08316e-12
 Reference value :  1.19404e-12
 Reference value :  1.33842e-12
 Reference value :  1.62719e-12
 Reference value :  2.20473e-12
 Reference value :  3.03962e-12
 Reference value :  3.94585e-12
 Reference value :  5.16898e-12
 Reference value :  6.92134e-12
 Reference value :  1.02799e-11
 Reference value :  1.42722e-11
 Reference value :  2.10150e-11
 Reference value :  2.79736e-11
 Reference value :  3.70306e-11
 Reference value :  4.86439e-11
 Reference value :  6.51922e-11
 Reference value :  8.57515e-11
 Reference value :  1.00000e-10
 Reference value :  1.01208e-10
 Reference value :  1.03623e-10
 Reference value :  1.08454e-10
 Reference value :  1.18115e-10
 Reference value :  1.37437e-10
 Reference value :  1.76082e-10
 Reference value :  2.53372e-10
 Reference value :  4.05313e-10
 Reference value :  5.67141e-10
 Reference value :  8.32666e-10
 Reference value :  1.18615e-09
 Reference value :  1.59546e-09
 Reference value :  2.27465e-09
 Reference value :  2.96701e-09
 Reference value :  4.01166e-09
 Reference value :  4.93382e-09
 Reference value :  5.89597e-09
 Reference value :  6.80670e-09
 Reference value :  7.95825e-09
 Reference value :  9.18867e-09
 Reference value :  1.15349e-08
 Reference value :  1.56445e-08
 Reference value :  1.99363e-08
 Reference value :  2.44557e-08
 Reference value :  2.77459e-08
 Reference value :  3.17333e-08
 Reference value :  3.53808e-08
 Reference value :  3.88100e-08
 Reference value :  4.19069e-08
 Reference value :  4.51302e-08
 Reference value :  5.15768e-08
 Reference value :  6.03855e-08
 Reference value :  7.80030e-08
 Reference value :  1.72484e-07
 Reference value :  2.50100e-07
 Reference value :  2.50130e-07
 Reference value :  2.50170e-07
 Reference value :  2.50200e-07
 Reference value :  2.50201e-07
 Reference value :  2.50202e-07
 Reference value :  2.50204e-07
 Reference value :  2.50208e-07
 Reference value :  2.50216e-07
 Reference value :  2.50233e-07
 Reference value :  2.50266e-07
 Reference value :  2.50332e-07
 Reference value :  2.50439e-07
 Reference value :  2.50621e-07
 Reference value :  2.50815e-07
 Reference value :  2.51149e-07
 Reference value :  2.51594e-07
 Reference value :  2.52132e-07
 Reference value :  2.52729e-07
 Reference value :  2.53372e-07
 Reference value :  2.54223e-07
 Reference value :  2.55151e-07
 Reference value :  2.56034e-07
 Reference value :  2.56924e-07
 Reference value :  2.57890e-07
 Reference value :  2.58820e-07
 Reference value :  2.60346e-07
 Reference value :  2.62159e-07
 Reference value :  2.64656e-07
 Reference value :  2.68324e-07
 Reference value :  2.72986e-07
 Reference value :  2.82310e-07
 Reference value :  2.99752e-07
 Reference value :  3.28815e-07
 Reference value :  3.86940e-07
 Reference value :  5.00000e-07
 Reference value :  5.00010e-07
 Reference value :  5.00030e-07
 Reference value :  5.00070e-07
 Reference value :  5.00100e-07
 Reference value :  5.00104e-07
 Reference value :  5.00113e-07
 Reference value :  5.00130e-07
 Reference value :  5.00165e-07
 Reference value :  5.00234e-07
 Reference value :  5.00573e-07
 Reference value :  5.00954e-07
 Reference value :  5.01538e-07
 Reference value :  5.02098e-07
 Reference value :  5.02756e-07
 Reference value :  5.03473e-07
 Reference value :  5.04378e-07
 Reference value :  5.05193e-07
 Reference value :  5.06062e-07
 Reference value :  5.07193e-07
 Reference value :  5.08302e-07
 Reference value :  5.10254e-07
 Reference value :  5.12415e-07
 Reference value :  5.14536e-07
 Reference value :  5.16800e-07
 Reference value :  5.19246e-07
 Reference value :  5.21506e-07
 Reference value :  5.24451e-07
 Reference value :  5.29125e-07
 Reference value :  5.36718e-07
 Reference value :  5.47565e-07
 Reference value :  5.69258e-07
 Reference value :  6.04228e-07
 Reference value :  6.74019e-07
 Reference value :  7.50100e-07
 Reference value :  7.50110e-07
 Reference value :  7.50130e-07
 Reference value :  7.50170e-07
 Reference value :  7.50200e-07
 Reference value :  7.50201e-07
 Reference value :  7.50202e-07
 Reference value :  7.50205e-07
 Reference value :  7.50211e-07
 Reference value :  7.50223e-07
 Reference value :  7.50247e-07
 Reference value :  7.50295e-07
 Reference value :  7.50390e-07
 Reference value :  7.50581e-07
 Reference value :  7.50959e-07
 Reference value :  7.51572e-07
 Reference value :  7.52191e-07
 Reference value :  7.52840e-07
 Reference value :  7.53542e-07
 Reference value :  7.54448e-07
 Reference value :  7.55182e-07
 Reference value :  7.56016e-07
 Reference value :  7.56745e-07
 Reference value :  7.57552e-07
 Reference value :  7.58569e-07
 Reference value :  7.59662e-07
 Reference value :  7.60742e-07
 Reference value :  7.62524e-07
 Reference value :  7.64158e-07
 Reference value :  7.67176e-07
 Reference value :  7.70212e-07
 Reference value :  7.74952e-07
 Reference value :  7.83028e-07
 Reference value :  7.93727e-07
 Reference value :  8.12238e-07
 Reference value :  8.44466e-07
 Reference value :  9.01210e-07
 Reference value :  1.00000e-06
 Reference value :  1.00001e-06
 Reference value :  1.00003e-06
 Reference value :  1.00007e-06
 Reference value :  1.00010e-06
 Reference value :  1.00010e-06
 Reference value :  1.00011e-06
 Reference value :  1.00013e-06
 Reference value :  1.00023e-06
 Reference value :  1.00037e-06
 Reference value :  1.00058e-06
 Reference value :  1.00096e-06
 Reference value :  1.00154e-06
 Reference value :  1.00210e-06
 Reference value :  1.00278e-06
 Reference value :  1.00354e-06
 Reference value :  1.00443e-06
 Reference value :  1.00528e-06
 Reference value :  1.00604e-06
 Reference value :  1.00684e-06
 Reference value :  1.00758e-06
 Reference value :  1.00841e-06
 Reference value :  1.00934e-06
 Reference value :  1.01049e-06
 Reference value :  1.01235e-06
 Reference value :  1.01631e-06
 Reference value :  1.01818e-06
 Reference value :  1.02030e-06
 Reference value :  1.02225e-06
 Reference value :  1.02367e-06
 Reference value :  1.02501e-06
 Reference value :  1.02655e-06
 Reference value :  1.02810e-06
 Reference value :  1.02979e-06
 Reference value :  1.03229e-06
 Reference value :  1.03498e-06
 Reference value :  1.04011e-06
 Reference value :  1.04774e-06
 Reference value :  1.06010e-06
 Reference value :  1.08483e-06
 Reference value :  1.12623e-06
 Reference value :  1.20703e-06
 Reference value :  1.25011e-06
 Reference value :  1.25013e-06
 Reference value :  1.25017e-06
 Reference value :  1.25020e-06
 Reference value :  1.25020e-06
 Reference value :  1.25021e-06
 Reference value :  1.25022e-06
 Reference value :  1.25025e-06
 Reference value :  1.25029e-06
 Reference value :  1.25039e-06
 Reference value :  1.25057e-06
 Reference value :  1.25090e-06
 Reference value :  1.25154e-06
 Reference value :  1.25213e-06
 Reference value :  1.25276e-06
 Reference value :  1.25347e-06
 Reference value :  1.25448e-06
 Reference value :  1.25525e-06
 Reference value :  1.25607e-06
 Reference value :  1.25711e-06
 Reference value :  1.25812e-06
 Reference value :  1.26155e-06
 Reference value :  1.26761e-06
 Reference value :  1.28052e-06
 Reference value :  1.29774e-06
 Reference value :  1.32537e-06
 Reference value :  1.38062e-06
 Reference value :  1.49113e-06
 Reference value :  1.50000e-06
 Reference value :  1.50001e-06
 Reference value :  1.50007e-06
 Reference value :  1.50010e-06
 Reference value :  1.50010e-06
 Reference value :  1.50011e-06
 Reference value :  1.50013e-06
 Reference value :  1.50016e-06
 Reference value :  1.50023e-06
 Reference value :  1.50037e-06
 Reference value :  1.50057e-06
 Reference value :  1.50093e-06
 Reference value :  1.50144e-06
 Reference value :  1.50196e-06
 Reference value :  1.50257e-06
 Reference value :  1.50328e-06
 Reference value :  1.50403e-06
 Reference value :  1.50495e-06
 Reference value :  1.50586e-06
 Reference value :  1.50684e-06
 Reference value :  1.50810e-06
 Reference value :  1.50937e-06
 Reference value :  1.51068e-06
 Reference value :  1.51201e-06
 Reference value :  1.51368e-06
 Reference value :  1.51505e-06
 Reference value :  1.51665e-06
 Reference value :  1.51820e-06
 Reference value :  1.51999e-06
 Reference value :  1.52359e-06
 Reference value :  1.52941e-06
 Reference value :  1.53979e-06
 Reference value :  1.56048e-06
 Reference value :  1.60187e-06
 Reference value :  1.68464e-06
 Reference value :  1.75010e-06
 Reference value :  1.75011e-06
 Reference value :  1.75013e-06
 Reference value :  1.75017e-06
 Reference value :  1.75020e-06
 Reference value :  1.75020e-06
 Reference value :  1.75020e-06
 Reference value :  1.75021e-06
 Reference value :  1.75022e-06
 Reference value :  1.75025e-06
 Reference value :  1.75029e-06
 Reference value :  1.75039e-06
 Reference value :  1.75057e-06
 Reference value :  1.75090e-06
 Reference value :  1.75156e-06
 Reference value :  1.75215e-06
 Reference value :  1.75278e-06
 Reference value :  1.75348e-06
 Reference value :  1.75439e-06
 Reference value :  1.75514e-06
 Reference value :  1.75599e-06
 Reference value :  1.75671e-06
 Reference value :  1.75752e-06
 Reference value :  1.75856e-06
 Reference value :  1.75967e-06
 Reference value :  1.76081e-06
 Reference value :  1.76250e-06
 Reference value :  1.76459e-06
 Reference value :  1.76721e-06
 Reference value :  1.77082e-06
 Reference value :  1.78444e-06
 Reference value :  1.82706e-06
 Reference value :  1.88389e-06
 Reference value :  2.00000e-06
 Reference value :  2.00001e-06
 Reference value :  2.00003e-06
 Reference value :  2.00007e-06
 Reference value :  2.00010e-06
 Reference value :  2.00010e-06
 Reference value :  2.00011e-06
 Reference value :  2.00013e-06
 Reference value :  2.00017e-06
 Reference value :  2.00023e-06
 Reference value :  2.00037e-06
 Reference value :  2.00057e-06
 Reference value :  2.00093e-06
 Reference value :  2.00145e-06
 Reference value :  2.00198e-06
 Reference value :  2.00262e-06
 Reference value :  2.00338e-06
 Reference value :  2.00415e-06
 Reference value :  2.00498e-06
 Reference value :  2.00570e-06
 Reference value :  2.00649e-06
 Reference value :  2.00720e-06
 Reference value :  2.00804e-06
 Reference value :  2.00883e-06
 Reference value :  2.00991e-06
 Reference value :  2.01108e-06
 Reference value :  2.01313e-06
 Reference value :  2.01599e-06
 Reference value :  2.01790e-06
 Reference value :  2.02002e-06
 Reference value :  2.02198e-06
 Reference value :  2.02344e-06
 Reference value :  2.02481e-06
 Reference value :  2.02604e-06
 Reference value :  2.02741e-06
 Reference value :  2.02904e-06
 Reference value :  2.03100e-06
 Reference value :  2.03376e-06
 Reference value :  2.03718e-06
 Reference value :  2.04402e-06
 Reference value :  2.05447e-06
 Reference value :  2.06905e-06
 Reference value :  2.09400e-06
 Reference value :  2.12821e-06
 Reference value :  2.16611e-06
 Reference value :  2.21155e-06
 Reference value :  2.25010e-06
 Reference value :  2.25011e-06
 Reference value :  2.25013e-06
 Reference value :  2.25020e-06
 Reference value :  2.25020e-06
 Reference value :  2.25020e-06
 Reference value :  2.25021e-06
 Reference value :  2.25022e-06
 Reference value :  2.25025e-06
 Reference value :  2.25029e-06
 Reference value :  2.25039e-06
 Reference value :  2.25057e-06
 Reference value :  2.25090e-06
 Reference value :  2.25155e-06
 Reference value :  2.25214e-06
 Reference value :  2.25278e-06
 Reference value :  2.25348e-06
 Reference value :  2.25440e-06
 Reference value :  2.25513e-06
 Reference value :  2.25597e-06
 Reference value :  2.25683e-06
 Reference value :  2.25773e-06
 Reference value :  2.25891e-06
 Reference value :  2.26080e-06
 Reference value :  2.26323e-06
 Reference value :  2.26631e-06
 Reference value :  2.27062e-06
 Reference value :  2.27740e-06
 Reference value :  2.29095e-06
 Reference value :  2.31807e-06
 Reference value :  2.37229e-06
 Reference value :  2.42509e-06
 Reference value :  2.48783e-06
 Reference value :  2.50000e-06
 Reference value :  2.50001e-06
 Reference value :  2.50003e-06
 Reference value :  2.50007e-06
 Reference value :  2.50010e-06
 Reference value :  2.50010e-06
 Reference value :  2.50011e-06
 Reference value :  2.50017e-06
 Reference value :  2.50023e-06
 Reference value :  2.50037e-06
 Reference value :  2.50057e-06
 Reference value :  2.50093e-06
 Reference value :  2.50145e-06
 Reference value :  2.50198e-06
 Reference value :  2.50259e-06
 Reference value :  2.50330e-06
 Reference value :  2.50406e-06
 Reference value :  2.50498e-06
 Reference value :  2.50590e-06
 Reference value :  2.50689e-06
 Reference value :  2.50813e-06
 Reference value :  2.50934e-06
 Reference value :  2.51064e-06
 Reference value :  2.51197e-06
 Reference value :  2.51359e-06
 Reference value :  2.51494e-06
 Reference value :  2.51651e-06
 Reference value :  2.51804e-06
 Reference value :  2.51982e-06
 Reference value :  2.52336e-06
 Reference value :  2.52926e-06
 Reference value :  2.53973e-06
 Reference value :  2.56069e-06
 Reference value :  2.60259e-06
 Reference value :  2.75010e-06
 Reference value :  2.75011e-06
 Reference value :  2.75013e-06
 Reference value :  2.75017e-06
 Reference value :  2.75020e-06
 Reference value :  2.75020e-06
 Reference value :  2.75020e-06
 Reference value :  2.75021e-06
 Reference value :  2.75021e-06
 Reference value :  2.75022e-06
 Reference value :  2.75025e-06
 Reference value :  2.75029e-06
 Reference value :  2.75039e-06
 Reference value :  2.75057e-06
 Reference value :  2.75090e-06
 Reference value :  2.75156e-06
 Reference value :  2.75215e-06
 Reference value :  2.75278e-06
 Reference value :  2.75349e-06
 Reference value :  2.75440e-06
 Reference value :  2.75514e-06
 Reference value :  2.75670e-06
 Reference value :  2.75751e-06
 Reference value :  2.75854e-06
 Reference value :  2.75965e-06
 Reference value :  2.76076e-06
 Reference value :  2.76249e-06
 Reference value :  2.76448e-06
 Reference value :  2.76718e-06
 Reference value :  2.77068e-06
 Reference value :  2.77526e-06
 Reference value :  2.78443e-06
 Reference value :  2.82405e-06
 Reference value :  2.87689e-06
 Reference value :  2.98256e-06
 Reference value :  3.00000e-06
 Reference value :  3.00001e-06
 Reference value :  3.00003e-06
 Reference value :  3.00007e-06
 Reference value :  3.00010e-06
 Reference value :  3.00010e-06
 Reference value :  3.00011e-06
 Reference value :  3.00013e-06
 Reference value :  3.00017e-06
 Reference value :  3.00023e-06
 Reference value :  3.00037e-06
 Reference value :  3.00057e-06
 Reference value :  3.00093e-06
 Reference value :  3.00145e-06
 Reference value :  3.00198e-06
 Reference value :  3.00262e-06
 Reference value :  3.00338e-06
 Reference value :  3.00415e-06
 Reference value :  3.00498e-06
 Reference value :  3.00572e-06
 Reference value :  3.00650e-06
 Reference value :  3.00723e-06
 Reference value :  3.00806e-06
 Reference value :  3.00887e-06
 Reference value :  3.00995e-06
 Reference value :  3.01115e-06
 Reference value :  3.01296e-06
 Reference value :  3.01491e-06
 Reference value :  3.01658e-06
 Reference value :  3.01831e-06
 Reference value :  3.02019e-06
 Reference value :  3.02172e-06
 Reference value :  3.02324e-06
 Reference value :  3.02505e-06
 Reference value :  3.02677e-06
 Reference value :  3.02832e-06
 Reference value :  3.03043e-06
 Reference value :  3.03314e-06
 Reference value :  3.03595e-06
 Reference value :  3.04083e-06
 Reference value :  3.04732e-06
 Reference value :  3.05759e-06
 Reference value :  3.07415e-06
 Reference value :  3.09922e-06
 Reference value :  3.12480e-06
 Reference value :  3.15309e-06
 Reference value :  3.18689e-06
 Reference value :  3.22185e-06
 Reference value :  3.25010e-06
 Reference value :  3.25011e-06
 Reference value :  3.25013e-06
 Reference value :  3.25017e-06
 Reference value :  3.25020e-06
 Reference value :  3.25020e-06
 Reference value :  3.25020e-06
 Reference value :  3.25021e-06
 Reference value :  3.25021e-06
 Reference value :  3.25022e-06
 Reference value :  3.25025e-06
 Reference value :  3.25039e-06
 Reference value :  3.25057e-06
 Reference value :  3.25090e-06
 Reference value :  3.25155e-06
 Reference value :  3.25215e-06
 Reference value :  3.25278e-06
 Reference value :  3.25349e-06
 Reference value :  3.25440e-06
 Reference value :  3.25513e-06
 Reference value :  3.25595e-06
 Reference value :  3.25681e-06
 Reference value :  3.25770e-06
 Reference value :  3.25888e-06
 Reference value :  3.26077e-06
 Reference value :  3.26321e-06
 Reference value :  3.26627e-06
 Reference value :  3.27058e-06
 Reference value :  3.27723e-06
 Reference value :  3.29052e-06
 Reference value :  3.31712e-06
 Reference value :  3.37031e-06
 Reference value :  3.47669e-06
 Reference value :  3.50000e-06
 Reference value :  3.50001e-06
 Reference value :  3.50003e-06
 Reference value :  3.50007e-06
 Reference value :  3.50010e-06
 Reference value :  3.50010e-06
 Reference value :  3.50011e-06
 Reference value :  3.50013e-06
 Reference value :  3.50016e-06
 Reference value :  3.50023e-06
 Reference value :  3.50037e-06
 Reference value :  3.50057e-06
 Reference value :  3.50093e-06
 Reference value :  3.50144e-06
 Reference value :  3.50196e-06
 Reference value :  3.50257e-06
 Reference value :  3.50328e-06
 Reference value :  3.50403e-06
 Reference value :  3.50495e-06
 Reference value :  3.50585e-06
 Reference value :  3.50684e-06
 Reference value :  3.50798e-06
 Reference value :  3.50926e-06
 Reference value :  3.51049e-06
 Reference value :  3.51175e-06
 Reference value :  3.51349e-06
 Reference value :  3.51493e-06
 Reference value :  3.51649e-06
 Reference value :  3.51806e-06
 Reference value :  3.51988e-06
 Reference value :  3.52342e-06
 Reference value :  3.52853e-06
 Reference value :  3.53876e-06
 Reference value :  3.55920e-06
 Reference value :  3.60009e-06
 Reference value :  3.68187e-06
 Reference value :  3.75010e-06
 Reference value :  3.75011e-06
 Reference value :  3.75013e-06
 Reference value :  3.75017e-06
 Reference value :  3.75020e-06
 Reference value :  3.75020e-06
 Reference value :  3.75020e-06
 Reference value :  3.75021e-06
 Reference value :  3.75021e-06
 Reference value :  3.75022e-06
 Reference value :  3.75025e-06
 Reference value :  3.75029e-06
 Reference value :  3.75039e-06
 Reference value :  3.75057e-06
 Reference value :  3.75090e-06
 Reference value :  3.75156e-06
 Reference value :  3.75215e-06
 Reference value :  3.75279e-06
 Reference value :  3.75349e-06
 Reference value :  3.75440e-06
 Reference value :  3.75514e-06
 Reference value :  3.75597e-06
 Reference value :  3.75669e-06
 Reference value :  3.75749e-06
 Reference value :  3.75852e-06
 Reference value :  3.75962e-06
 Reference value :  3.76068e-06
 Reference value :  3.76245e-06
 Reference value :  3.76710e-06
 Reference value :  3.77035e-06
 Reference value :  3.77502e-06
 Reference value :  3.78354e-06
 Reference value :  3.79473e-06
 Reference value :  3.81552e-06
 Reference value :  3.85502e-06
 Reference value :  3.91941e-06
 Reference value :  4.00000e-06
 Reference value :  4.00001e-06
 Reference value :  4.00003e-06
 Reference value :  4.00007e-06
 Reference value :  4.00010e-06
 Reference value :  4.00010e-06
 Reference value :  4.00011e-06
 Reference value :  4.00013e-06
 Reference value :  4.00017e-06
 Reference value :  4.00023e-06
 Reference value :  4.00037e-06
 Reference value :  4.00057e-06
 Reference value :  4.00093e-06
 Reference value :  4.00145e-06
 Reference value :  4.00198e-06
 Reference value :  4.00262e-06
 Reference value :  4.00338e-06
 Reference value :  4.00415e-06
 Reference value :  4.00498e-06
 Reference value :  4.00570e-06
 Reference value :  4.00648e-06
 Reference value :  4.00720e-06
 Reference value :  4.00804e-06
 Reference value :  4.00886e-06
 Reference value :  4.00995e-06
 Reference value :  4.01118e-06
 Reference value :  4.01322e-06
 Reference value :  4.01459e-06
 Reference value :  4.01612e-06
 Reference value :  4.01768e-06
 Reference value :  4.01941e-06
 Reference value :  4.02102e-06
 Reference value :  4.02236e-06
 Reference value :  4.02382e-06
 Reference value :  4.02515e-06
 Reference value :  4.02664e-06
 Reference value :  4.02814e-06
 Reference value :  4.02973e-06
 Reference value :  4.03235e-06
 Reference value :  4.03536e-06
 Reference value :  4.04137e-06
 Reference value :  4.05237e-06
 Reference value :  4.06971e-06
 Reference value :  4.08824e-06
 Reference value :  4.10641e-06
 Reference value :  4.12527e-06
 Reference value :  4.14256e-06
 Reference value :  4.16590e-06
 Reference value :  4.18989e-06
 Reference value :  4.22723e-06
 Reference value :  4.25011e-06
 Reference value :  4.25013e-06
 Reference value :  4.25017e-06
 Reference value :  4.25020e-06
 Reference value :  4.25020e-06
 Reference value :  4.25020e-06
 Reference value :  4.25021e-06
 Reference value :  4.25021e-06
 Reference value :  4.25022e-06
 Reference value :  4.25025e-06
 Reference value :  4.25029e-06
 Reference value :  4.25039e-06
 Reference value :  4.25057e-06
 Reference value :  4.25090e-06
 Reference value :  4.25155e-06
 Reference value :  4.25215e-06
 Reference value :  4.25279e-06
 Reference value :  4.25349e-06
 Reference value :  4.25440e-06
 Reference value :  4.25513e-06
 Reference value :  4.25596e-06
 Reference value :  4.25682e-06
 Reference value :  4.25771e-06
 Reference value :  4.25888e-06
 Reference value :  4.26079e-06
 Reference value :  4.26322e-06
 Reference value :  4.26630e-06
 Reference value :  4.27061e-06
 Reference value :  4.27718e-06
 Reference value :  4.29031e-06
 Reference value :  4.31658e-06
 Reference value :  4.36912e-06
 Reference value :  4.47419e-06
 Reference value :  4.50000e-06
 Reference value :  4.50001e-06
 Reference value :  4.50003e-06
 Reference value :  4.50007e-06
 Reference value :  4.50010e-06
 Reference value :  4.50010e-06
 Reference value :  4.50011e-06
 Reference value :  4.50013e-06
 Reference value :  4.50016e-06
 Reference value :  4.50023e-06
 Reference value :  4.50037e-06
 Reference value :  4.50057e-06
 Reference value :  4.50093e-06
 Reference value :  4.50143e-06
 Reference value :  4.50196e-06
 Reference value :  4.50256e-06
 Reference value :  4.50328e-06
 Reference value :  4.50402e-06
 Reference value :  4.50495e-06
 Reference value :  4.50584e-06
 Reference value :  4.50684e-06
 Reference value :  4.50798e-06
 Reference value :  4.50916e-06
 Reference value :  4.51038e-06
 Reference value :  4.51164e-06
 Reference value :  4.51325e-06
 Reference value :  4.51468e-06
 Reference value :  4.51785e-06
 Reference value :  4.51972e-06
 Reference value :  4.52314e-06
 Reference value :  4.52817e-06
 Reference value :  4.53819e-06
 Reference value :  4.55734e-06
 Reference value :  4.59433e-06
 Reference value :  4.66829e-06
 Reference value :  4.75010e-06
 Reference value :  4.75011e-06
 Reference value :  4.75013e-06
 Reference value :  4.75017e-06
 Reference value :  4.75020e-06
 Reference value :  4.75020e-06
 Reference value :  4.75020e-06
 Reference value :  4.75021e-06
 Reference value :  4.75021e-06
 Reference value :  4.75025e-06
 Reference value :  4.75029e-06
 Reference value :  4.75039e-06
 Reference value :  4.75057e-06
 Reference value :  4.75090e-06
 Reference value :  4.75155e-06
 Reference value :  4.75215e-06
 Reference value :  4.75278e-06
 Reference value :  4.75348e-06
 Reference value :  4.75440e-06
 Reference value :  4.75514e-06
 Reference value :  4.75598e-06
 Reference value :  4.75671e-06
 Reference value :  4.75751e-06
 Reference value :  4.75855e-06
 Reference value :  4.75965e-06
 Reference value :  4.76079e-06
 Reference value :  4.76247e-06
 Reference value :  4.76456e-06
 Reference value :  4.76718e-06
 Reference value :  4.77077e-06
 Reference value :  4.77529e-06
 Reference value :  4.78434e-06
 Reference value :  4.79860e-06
 Reference value :  4.82713e-06
 Reference value :  4.88419e-06
 Reference value :  4.99831e-06
 Reference value :  5.00000e-06
 Reference value :  5.00001e-06
 Reference value :  5.00003e-06
 Reference value :  5.00007e-06
 Reference value :  5.00010e-06
 Reference value :  5.00010e-06
 Reference value :  5.00011e-06
 Reference value :  5.00013e-06
 Reference value :  5.00017e-06
 Reference value :  5.00023e-06
 Reference value :  5.00037e-06
 Reference value :  5.00057e-06
 Reference value :  5.00093e-06
 Reference value :  5.00145e-06
 Reference value :  5.00197e-06
 Reference value :  5.00261e-06
 Reference value :  5.00338e-06
 Reference value :  5.00414e-06
 Reference value :  5.00497e-06
 Reference value :  5.00569e-06
 Reference value :  5.00648e-06
 Reference value :  5.00720e-06
 Reference value :  5.00804e-06
 Reference value :  5.00891e-06
 Reference value :  5.00998e-06
 Reference value :  5.01335e-06
 Reference value :  5.01466e-06
 Reference value :  5.01619e-06
 Reference value :  5.01814e-06
 Reference value :  5.02000e-06
 Reference value :  5.02155e-06
 Reference value :  5.02309e-06
 Reference value :  5.02492e-06
 Reference value :  5.02645e-06
 Reference value :  5.02803e-06
 Reference value :  5.02999e-06
 Reference value :  5.03257e-06
 Reference value :  5.03521e-06
 Reference value :  5.03954e-06
 Reference value :  5.05480e-06
 Reference value :  5.06611e-06
 Reference value :  5.07937e-06
 Reference value :  5.09074e-06
 Reference value :  5.10271e-06
 Reference value :  5.11838e-06
 Reference value :  5.14364e-06
 Reference value :  5.16963e-06
 Reference value :  5.20761e-06
 Reference value :  5.25010e-06
 Reference value :  5.25011e-06
 Reference value :  5.25013e-06
 Reference value :  5.25017e-06
 Reference value :  5.25020e-06
 Reference value :  5.25020e-06
 Reference value :  5.25020e-06
 Reference value :  5.25021e-06
 Reference value :  5.25021e-06
 Reference value :  5.25025e-06
 Reference value :  5.25029e-06
 Reference value :  5.25039e-06
 Reference value :  5.25058e-06
 Reference value :  5.25091e-06
 Reference value :  5.25157e-06
 Reference value :  5.25218e-06
 Reference value :  5.25282e-06
 Reference value :  5.25353e-06
 Reference value :  5.25443e-06
 Reference value :  5.25514e-06
 Reference value :  5.25594e-06
 Reference value :  5.25680e-06
 Reference value :  5.25768e-06
 Reference value :  5.25884e-06
 Reference value :  5.26074e-06
 Reference value :  5.26319e-06
 Reference value :  5.26622e-06
 Reference value :  5.27053e-06
 Reference value :  5.27706e-06
 Reference value :  5.29011e-06
 Reference value :  5.31623e-06
 Reference value :  5.36846e-06
 Reference value :  5.47292e-06
 Reference value :  5.50000e-06
 Reference value :  5.50001e-06
 Reference value :  5.50003e-06
 Reference value :  5.50007e-06
 Reference value :  5.50010e-06
 Reference value :  5.50010e-06
 Reference value :  5.50011e-06
 Reference value :  5.50013e-06
 Reference value :  5.50016e-06
 Reference value :  5.50023e-06
 Reference value :  5.50037e-06
 Reference value :  5.50057e-06
 Reference value :  5.50093e-06
 Reference value :  5.50143e-06
 Reference value :  5.50196e-06
 Reference value :  5.50256e-06
 Reference value :  5.50328e-06
 Reference value :  5.50402e-06
 Reference value :  5.50495e-06
 Reference value :  5.50586e-06
 Reference value :  5.50685e-06
 Reference value :  5.50811e-06
 Reference value :  5.50926e-06
 Reference value :  5.51067e-06
 Reference value :  5.51201e-06
 Reference value :  5.51360e-06
 Reference value :  5.51529e-06
 Reference value :  5.51707e-06
 Reference value :  5.51916e-06
 Reference value :  5.52271e-06
 Reference value :  5.52789e-06
 Reference value :  5.53735e-06
 Reference value :  5.55473e-06
 Reference value :  5.58607e-06
 Reference value :  5.64744e-06
 Reference value :  5.75010e-06
 Reference value :  5.75011e-06
 Reference value :  5.75013e-06
 Reference value :  5.75017e-06
 Reference value :  5.75020e-06
 Reference value :  5.75020e-06
 Reference value :  5.75020e-06
 Reference value :  5.75021e-06
 Reference value :  5.75021e-06
 Reference value :  5.75022e-06
 Reference value :  5.75025e-06
 Reference value :  5.75029e-06
 Reference value :  5.75039e-06
 Reference value :  5.75058e-06
 Reference value :  5.75091e-06
 Reference value :  5.75158e-06
 Reference value :  5.75218e-06
 Reference value :  5.75283e-06
 Reference value :  5.75353e-06
 Reference value :  5.75443e-06
 Reference value :  5.75514e-06
 Reference value :  5.75595e-06
 Reference value :  5.75667e-06
 Reference value :  5.75745e-06
 Reference value :  5.75848e-06
 Reference value :  5.75956e-06
 Reference value :  5.76062e-06
 Reference value :  5.76240e-06
 Reference value :  5.76410e-06
 Reference value :  5.76707e-06
 Reference value :  5.77022e-06
 Reference value :  5.77493e-06
 Reference value :  5.78323e-06
 Reference value :  5.79415e-06
 Reference value :  5.81383e-06
 Reference value :  5.91097e-06
 Reference value :  6.00000e-06
 Reference value :  6.00001e-06
 Reference value :  6.00003e-06
 Reference value :  6.00007e-06
 Reference value :  6.00010e-06
 Reference value :  6.00010e-06
 Reference value :  6.00011e-06
 Reference value :  6.00013e-06
 Reference value :  6.00017e-06
 Reference value :  6.00023e-06
 Reference value :  6.00037e-06
 Reference value :  6.00057e-06
 Reference value :  6.00145e-06
 Reference value :  6.00198e-06
 Reference value :  6.00262e-06
 Reference value :  6.00338e-06
 Reference value :  6.00415e-06
 Reference value :  6.00498e-06
 Reference value :  6.00571e-06
 Reference value :  6.00649e-06
 Reference value :  6.00722e-06
 Reference value :  6.00805e-06
 Reference value :  6.00896e-06
 Reference value :  6.01001e-06
 Reference value :  6.01161e-06
 Reference value :  6.01350e-06
 Reference value :  6.01487e-06
 Reference value :  6.01640e-06
 Reference value :  6.01814e-06
 Reference value :  6.02000e-06
 Reference value :  6.02189e-06
 Reference value :  6.02350e-06
 Reference value :  6.02519e-06
 Reference value :  6.02668e-06
 Reference value :  6.02825e-06
 Reference value :  6.03010e-06
 Reference value :  6.03262e-06
 Reference value :  6.03526e-06
 Reference value :  6.03990e-06
 Reference value :  6.04647e-06
 Reference value :  6.05200e-06
 Reference value :  6.05861e-06
 Reference value :  6.06544e-06
 Reference value :  6.07701e-06
 Reference value :  6.09276e-06
 Reference value :  6.12426e-06
 Reference value :  6.17651e-06
 Reference value :  6.25010e-06
 Reference value :  6.25011e-06
 Reference value :  6.25013e-06
 Reference value :  6.25017e-06
 Reference value :  6.25020e-06
 Reference value :  6.25020e-06
 Reference value :  6.25020e-06
 Reference value :  6.25021e-06
 Reference value :  6.25021e-06
 Reference value :  6.25022e-06
 Reference value :  6.25025e-06
 Reference value :  6.25029e-06
 Reference value :  6.25039e-06
 Reference value :  6.25057e-06
 Reference value :  6.25090e-06
 Reference value :  6.25156e-06
 Reference value :  6.25216e-06
 Reference value :  6.25279e-06
 Reference value :  6.25350e-06
 Reference value :  6.25441e-06
 Reference value :  6.25513e-06
 Reference value :  6.25595e-06
 Reference value :  6.25680e-06
 Reference value :  6.25769e-06
 Reference value :  6.25886e-06
 Reference value :  6.26075e-06
 Reference value :  6.26320e-06
 Reference value :  6.26623e-06
 Reference value :  6.27711e-06
 Reference value :  6.29023e-06
 Reference value :  6.31647e-06
 Reference value :  6.36894e-06
 Reference value :  6.47389e-06
 Reference value :  6.50000e-06
 Reference value :  6.50001e-06
 Reference value :  6.50003e-06
 Reference value :  6.50007e-06
 Reference value :  6.50010e-06
 Reference value :  6.50010e-06
 Reference value :  6.50011e-06
 Reference value :  6.50013e-06
 Reference value :  6.50016e-06
 Reference value :  6.50023e-06
 Reference value :  6.50037e-06
 Reference value :  6.50057e-06
 Reference value :  6.50093e-06
 Reference value :  6.50144e-06
 Reference value :  6.50196e-06
 Reference value :  6.50256e-06
 Reference value :  6.50328e-06
 Reference value :  6.50403e-06
 Reference value :  6.50495e-06
 Reference value :  6.50585e-06
 Reference value :  6.50684e-06
 Reference value :  6.50798e-06
 Reference value :  6.50929e-06
 Reference value :  6.51052e-06
 Reference value :  6.51179e-06
 Reference value :  6.51355e-06
 Reference value :  6.51521e-06
 Reference value :  6.51685e-06
 Reference value :  6.51888e-06
 Reference value :  6.52111e-06
 Reference value :  6.52481e-06
 Reference value :  6.53025e-06
 Reference value :  6.53969e-06
 Reference value :  6.55668e-06
 Reference value :  6.58663e-06
 Reference value :  6.64306e-06
 Reference value :  6.74626e-06
 Reference value :  6.75010e-06
 Reference value :  6.75011e-06
 Reference value :  6.75013e-06
 Reference value :  6.75017e-06
 Reference value :  6.75020e-06
 Reference value :  6.75020e-06
 Reference value :  6.75021e-06
 Reference value :  6.75022e-06
 Reference value :  6.75025e-06
 Reference value :  6.75029e-06
 Reference value :  6.75039e-06
 Reference value :  6.75058e-06
 Reference value :  6.75091e-06
 Reference value :  6.75158e-06
 Reference value :  6.75219e-06
 Reference value :  6.75283e-06
 Reference value :  6.75353e-06
 Reference value :  6.75443e-06
 Reference value :  6.75514e-06
 Reference value :  6.75595e-06
 Reference value :  6.75666e-06
 Reference value :  6.75745e-06
 Reference value :  6.75847e-06
 Reference value :  6.75956e-06
 Reference value :  6.76059e-06
 Reference value :  6.76219e-06
 Reference value :  6.76383e-06
 Reference value :  6.76678e-06
 Reference value :  6.76979e-06
 Reference value :  6.77441e-06
 Reference value :  6.78200e-06
 Reference value :  6.80899e-06
 Reference value :  6.88898e-06
 Reference value :  7.00000e-06
 Reference value :  7.00001e-06
 Reference value :  7.00003e-06
 Reference value :  7.00007e-06
 Reference value :  7.00010e-06
 Reference value :  7.00010e-06
 Reference value :  7.00011e-06
 Reference value :  7.00013e-06
 Reference value :  7.00016e-06
 Reference value :  7.00023e-06
 Reference value :  7.00037e-06
 Reference value :  7.00057e-06
 Reference value :  7.00093e-06
 Reference value :  7.00143e-06
 Reference value :  7.00196e-06
 Reference value :  7.00260e-06
 Reference value :  7.00336e-06
 Reference value :  7.00412e-06
 Reference value :  7.00495e-06
 Reference value :  7.00567e-06
 Reference value :  7.00646e-06
 Reference value :  7.00718e-06
 Reference value :  7.00803e-06
 Reference value :  7.00894e-06
 Reference value :  7.00999e-06
 Reference value :  7.01143e-06
 Reference value :  7.01343e-06
 Reference value :  7.01489e-06
 Reference value :  7.01648e-06
 Reference value :  7.01813e-06
 Reference value :  7.01990e-06
 Reference value :  7.02161e-06
 Reference value :  7.02286e-06
 Reference value :  7.02406e-06
 Reference value :  7.02526e-06
 Reference value :  7.02664e-06
 Reference value :  7.02820e-06
 Reference value :  7.02962e-06
 Reference value :  7.03205e-06
 Reference value :  7.03460e-06
 Reference value :  7.03827e-06
 Reference value :  7.04224e-06
 Reference value :  7.04768e-06
 Reference value :  7.05462e-06
 Reference value :  7.06744e-06
 Reference value :  7.09162e-06
 Reference value :  7.13261e-06
 Reference value :  7.21460e-06
 Reference value :  7.25010e-06
 Reference value :  7.25011e-06
 Reference value :  7.25013e-06
 Reference value :  7.25017e-06
 Reference value :  7.25020e-06
 Reference value :  7.25020e-06
 Reference value :  7.25020e-06
 Reference value :  7.25021e-06
 Reference value :  7.25021e-06
 Reference value :  7.25022e-06
 Reference value :  7.25025e-06
 Reference value :  7.25029e-06
 Reference value :  7.25039e-06
 Reference value :  7.25057e-06
 Reference value :  7.25091e-06
 Reference value :  7.25156e-06
 Reference value :  7.25216e-06
 Reference value :  7.25280e-06
 Reference value :  7.25351e-06
 Reference value :  7.25441e-06
 Reference value :  7.25511e-06
 Reference value :  7.25591e-06
 Reference value :  7.25678e-06
 Reference value :  7.25767e-06
 Reference value :  7.25881e-06
 Reference value :  7.26078e-06
 Reference value :  7.26323e-06
 Reference value :  7.26627e-06
 Reference value :  7.27058e-06
 Reference value :  7.27720e-06
 Reference value :  7.29046e-06
 Reference value :  7.31697e-06
 Reference value :  7.37000e-06
 Reference value :  7.47604e-06
 Reference value :  7.50000e-06
 Reference value :  7.50001e-06
 Reference value :  7.50003e-06
 Reference value :  7.50007e-06
 Reference value :  7.50010e-06
 Reference value :  7.50010e-06
 Reference value :  7.50011e-06
 Reference value :  7.50013e-06
 Reference value :  7.50016e-06
 Reference value :  7.50023e-06
 Reference value :  7.50037e-06
 Reference value :  7.50056e-06
 Reference value :  7.50092e-06
 Reference value :  7.50151e-06
 Reference value :  7.50204e-06
 Reference value :  7.50267e-06
 Reference value :  7.50337e-06
 Reference value :  7.50418e-06
 Reference value :  7.50501e-06
 Reference value :  7.50596e-06
 Reference value :  7.50694e-06
 Reference value :  7.50812e-06
 Reference value :  7.50933e-06
 Reference value :  7.51058e-06
 Reference value :  7.51186e-06
 Reference value :  7.51351e-06
 Reference value :  7.51495e-06
 Reference value :  7.51648e-06
 Reference value :  7.51814e-06
 Reference value :  7.52001e-06
 Reference value :  7.52342e-06
 Reference value :  7.52838e-06
 Reference value :  7.55690e-06
 Reference value :  7.59277e-06
 Reference value :  7.66452e-06
 Reference value :  7.75010e-06
 Reference value :  7.75011e-06
 Reference value :  7.75013e-06
 Reference value :  7.75017e-06
 Reference value :  7.75020e-06
 Reference value :  7.75020e-06
 Reference value :  7.75021e-06
 Reference value :  7.75021e-06
 Reference value :  7.75022e-06
 Reference value :  7.75025e-06
 Reference value :  7.75029e-06
 Reference value :  7.75039e-06
 Reference value :  7.75057e-06
 Reference value :  7.75091e-06
 Reference value :  7.75157e-06
 Reference value :  7.75217e-06
 Reference value :  7.75281e-06
 Reference value :  7.75352e-06
 Reference value :  7.75442e-06
 Reference value :  7.75512e-06
 Reference value :  7.75592e-06
 Reference value :  7.75664e-06
 Reference value :  7.75742e-06
 Reference value :  7.75845e-06
 Reference value :  7.75955e-06
 Reference value :  7.76064e-06
 Reference value :  7.76240e-06
 Reference value :  7.76423e-06
 Reference value :  7.76707e-06
 Reference value :  7.77039e-06
 Reference value :  7.77502e-06
 Reference value :  7.78419e-06
 Reference value :  7.79609e-06
 Reference value :  7.81961e-06
 Reference value :  7.86424e-06
 Reference value :  7.95066e-06
 Reference value :  8.00000e-06
 Reference value :  8.00001e-06
 Reference value :  8.00003e-06
 Reference value :  8.00007e-06
 Reference value :  8.00010e-06
 Reference value :  8.00010e-06
 Reference value :  8.00013e-06
 Reference value :  8.00017e-06
 Reference value :  8.00023e-06
 Reference value :  8.00037e-06
 Reference value :  8.00057e-06
 Reference value :  8.00093e-06
 Reference value :  8.00151e-06
 Reference value :  8.00205e-06
 Reference value :  8.00270e-06
 Reference value :  8.00347e-06
 Reference value :  8.00429e-06
 Reference value :  8.00514e-06
 Reference value :  8.00596e-06
 Reference value :  8.00670e-06
 Reference value :  8.00741e-06
 Reference value :  8.00823e-06
 Reference value :  8.00915e-06
 Reference value :  8.01026e-06
 Reference value :  8.01210e-06
 Reference value :  8.01414e-06
 Reference value :  8.01564e-06
 Reference value :  8.01732e-06
 Reference value :  8.01893e-06
 Reference value :  8.02086e-06
 Reference value :  8.02282e-06
 Reference value :  8.02494e-06
 Reference value :  8.02668e-06
 Reference value :  8.02901e-06
 Reference value :  8.03126e-06
 Reference value :  8.03556e-06
 Reference value :  8.04054e-06
 Reference value :  8.05050e-06
 Reference value :  8.06550e-06
 Reference value :  8.09279e-06
 Reference value :  8.22892e-06
 Reference value :  8.25011e-06
 Reference value :  8.25013e-06
 Reference value :  8.25017e-06
 Reference value :  8.25020e-06
 Reference value :  8.25020e-06
 Reference value :  8.25020e-06
 Reference value :  8.25021e-06
 Reference value :  8.25021e-06
 Reference value :  8.25022e-06
 Reference value :  8.25025e-06
 Reference value :  8.25029e-06
 Reference value :  8.25039e-06
 Reference value :  8.25058e-06
 Reference value :  8.25096e-06
 Reference value :  8.25160e-06
 Reference value :  8.25223e-06
 Reference value :  8.25289e-06
 Reference value :  8.25360e-06
 Reference value :  8.25448e-06
 Reference value :  8.25544e-06
 Reference value :  8.25666e-06
 Reference value :  8.25800e-06
 Reference value :  8.25944e-06
 Reference value :  8.26193e-06
 Reference value :  8.26450e-06
 Reference value :  8.26848e-06
 Reference value :  8.27326e-06
 Reference value :  8.28282e-06
 Reference value :  8.30194e-06
 Reference value :  8.34018e-06
 Reference value :  8.41666e-06
 Reference value :  8.50001e-06
 Reference value :  8.50003e-06
 Reference value :  8.50007e-06
 Reference value :  8.50010e-06
 Reference value :  8.50010e-06
 Reference value :  8.50011e-06
 Reference value :  8.50013e-06
 Reference value :  8.50016e-06
 Reference value :  8.50023e-06
 Reference value :  8.50037e-06
 Reference value :  8.50064e-06
 Reference value :  8.50112e-06
 Reference value :  8.50178e-06
 Reference value :  8.50246e-06
 Reference value :  8.50309e-06
 Reference value :  8.50384e-06
 Reference value :  8.50451e-06
 Reference value :  8.50531e-06
 Reference value :  8.50617e-06
 Reference value :  8.50712e-06
 Reference value :  8.50861e-06
 Reference value :  8.51022e-06
 Reference value :  8.51166e-06
 Reference value :  8.51315e-06
 Reference value :  8.51507e-06
 Reference value :  8.51766e-06
 Reference value :  8.52054e-06
 Reference value :  8.52631e-06
 Reference value :  8.53193e-06
 Reference value :  8.53715e-06
 Reference value :  8.54095e-06
 Reference value :  8.54456e-06
 Reference value :  8.54822e-06
 Reference value :  8.55212e-06
 Reference value :  8.55579e-06
 Reference value :  8.55920e-06
 Reference value :  8.56495e-06
 Reference value :  8.56824e-06
 Reference value :  8.57481e-06
 Reference value :  8.58228e-06
 Reference value :  8.59723e-06
 Reference value :  8.66601e-06
 Reference value :  8.72639e-06
 Reference value :  8.75010e-06
 Reference value :  8.75011e-06
 Reference value :  8.75013e-06
 Reference value :  8.75017e-06
 Reference value :  8.75020e-06
 Reference value :  8.75020e-06
 Reference value :  8.75020e-06
 Reference value :  8.75021e-06
 Reference value :  8.75021e-06
 Reference value :  8.75022e-06
 Reference value :  8.75025e-06
 Reference value :  8.75029e-06
 Reference value :  8.75039e-06
 Reference value :  8.75057e-06
 Reference value :  8.75094e-06
 Reference value :  8.75155e-06
 Reference value :  8.75216e-06
 Reference value :  8.75280e-06
 Reference value :  8.75348e-06
 Reference value :  8.75436e-06
 Reference value :  8.75510e-06
 Reference value :  8.75593e-06
 Reference value :  8.75678e-06
 Reference value :  8.75767e-06
 Reference value :  8.75884e-06
 Reference value :  8.76070e-06
 Reference value :  8.76340e-06
 Reference value :  8.76631e-06
 Reference value :  8.77084e-06
 Reference value :  8.77733e-06
 Reference value :  8.79029e-06
 Reference value :  8.81622e-06
 Reference value :  8.86324e-06
 Reference value :  8.95726e-06
No. of Data Rows : 1406
ngspice-44 done
