
Note: Compatibility modes selected: hs a


Circuit: ** sch_path: /home/ece/cace/sar-adc-using-sky130-pdk/runs/run_2025-09-09_04-49-06/parameters/sampling_rate/run_15/sampling_rate.sch

option SCALE: Scale is set to 1e-06 for instance and model parameters
option SCALE: Scale is set to 1e-06 for instance and model parameters
option SCALE: Scale is set to 1e-06 for instance and model parameters
option SCALE: Scale is set to 1e-06 for instance and model parameters
Doing analysis at TEMP = 27.000000 and TNOM = 27.000000

Using KLU as Direct Linear Solver
Operating point simulation skipped by 'uic',
  now using transient initial conditions.
 Reference value :  1.00000e-12
 Reference value :  1.02772e-12
 Reference value :  1.08316e-12
 Reference value :  1.19404e-12
 Reference value :  1.33849e-12
 Reference value :  1.62739e-12
 Reference value :  2.20519e-12
 Reference value :  3.06322e-12
 Reference value :  3.96396e-12
 Reference value :  5.17300e-12
 Reference value :  6.88273e-12
 Reference value :  1.00040e-11
 Reference value :  1.36502e-11
 Reference value :  2.02807e-11
 Reference value :  2.71600e-11
 Reference value :  3.60146e-11
 Reference value :  4.68701e-11
 Reference value :  6.52514e-11
 Reference value :  8.55284e-11
 Reference value :  1.00000e-10
 Reference value :  1.01199e-10
 Reference value :  1.03598e-10
 Reference value :  1.08396e-10
 Reference value :  1.17992e-10
 Reference value :  1.37184e-10
 Reference value :  1.75567e-10
 Reference value :  2.52334e-10
 Reference value :  4.04323e-10
 Reference value :  5.65517e-10
 Reference value :  8.30550e-10
 Reference value :  1.18181e-09
 Reference value :  1.63924e-09
 Reference value :  2.37381e-09
 Reference value :  3.08526e-09
 Reference value :  3.70854e-09
 Reference value :  4.49769e-09
 Reference value :  5.31682e-09
 Reference value :  6.23147e-09
 Reference value :  7.58891e-09
 Reference value :  8.87526e-09
 Reference value :  9.93448e-09
 Reference value :  1.09620e-08
 Reference value :  1.18635e-08
 Reference value :  1.28252e-08
 Reference value :  1.69554e-08
 Reference value :  2.00376e-08
 Reference value :  2.39298e-08
 Reference value :  2.69137e-08
 Reference value :  2.96763e-08
 Reference value :  3.25153e-08
 Reference value :  3.58683e-08
 Reference value :  4.15022e-08
 Reference value :  4.76772e-08
 Reference value :  8.17353e-08
 Reference value :  1.21748e-07
 Reference value :  2.50100e-07
 Reference value :  2.50110e-07
 Reference value :  2.50130e-07
 Reference value :  2.50170e-07
 Reference value :  2.50201e-07
 Reference value :  2.50202e-07
 Reference value :  2.50204e-07
 Reference value :  2.50216e-07
 Reference value :  2.50233e-07
 Reference value :  2.50267e-07
 Reference value :  2.50335e-07
 Reference value :  2.50413e-07
 Reference value :  2.50568e-07
 Reference value :  2.50718e-07
 Reference value :  2.51017e-07
 Reference value :  2.51342e-07
 Reference value :  2.51862e-07
 Reference value :  2.52430e-07
 Reference value :  2.53224e-07
 Reference value :  2.54048e-07
 Reference value :  2.55127e-07
 Reference value :  2.55879e-07
 Reference value :  2.56736e-07
 Reference value :  2.57745e-07
 Reference value :  2.58862e-07
 Reference value :  2.60182e-07
 Reference value :  2.62438e-07
 Reference value :  2.64486e-07
 Reference value :  2.68123e-07
 Reference value :  2.72901e-07
 Reference value :  2.82458e-07
 Reference value :  2.99138e-07
 Reference value :  3.27547e-07
 Reference value :  3.84364e-07
 Reference value :  4.97999e-07
 Reference value :  5.00000e-07
 Reference value :  5.00010e-07
 Reference value :  5.00030e-07
 Reference value :  5.00070e-07
 Reference value :  5.00100e-07
 Reference value :  5.00104e-07
 Reference value :  5.00112e-07
 Reference value :  5.00129e-07
 Reference value :  5.00162e-07
 Reference value :  5.00229e-07
 Reference value :  5.00362e-07
 Reference value :  5.00537e-07
 Reference value :  5.00888e-07
 Reference value :  5.01502e-07
 Reference value :  5.02193e-07
 Reference value :  5.02817e-07
 Reference value :  5.03504e-07
 Reference value :  5.04212e-07
 Reference value :  5.05148e-07
 Reference value :  5.06119e-07
 Reference value :  5.07100e-07
 Reference value :  5.08379e-07
 Reference value :  5.09807e-07
 Reference value :  5.11740e-07
 Reference value :  5.14069e-07
 Reference value :  5.15916e-07
 Reference value :  5.17905e-07
 Reference value :  5.19991e-07
 Reference value :  5.22394e-07
 Reference value :  5.25104e-07
 Reference value :  5.33188e-07
 Reference value :  5.41575e-07
 Reference value :  5.51296e-07
 Reference value :  6.09623e-07
 Reference value :  6.73432e-07
 Reference value :  7.50100e-07
 Reference value :  7.50110e-07
 Reference value :  7.50130e-07
 Reference value :  7.50170e-07
 Reference value :  7.50200e-07
 Reference value :  7.50201e-07
 Reference value :  7.50202e-07
 Reference value :  7.50205e-07
 Reference value :  7.50211e-07
 Reference value :  7.50224e-07
 Reference value :  7.50248e-07
 Reference value :  7.50297e-07
 Reference value :  7.50395e-07
 Reference value :  7.50590e-07
 Reference value :  7.50977e-07
 Reference value :  7.51389e-07
 Reference value :  7.51911e-07
 Reference value :  7.52518e-07
 Reference value :  7.53316e-07
 Reference value :  7.54225e-07
 Reference value :  7.55414e-07
 Reference value :  7.56519e-07
 Reference value :  7.57522e-07
 Reference value :  7.58609e-07
 Reference value :  7.59815e-07
 Reference value :  7.61113e-07
 Reference value :  7.63557e-07
 Reference value :  7.66725e-07
 Reference value :  7.72290e-07
 Reference value :  7.83420e-07
 Reference value :  8.03446e-07
 Reference value :  8.42148e-07
 Reference value :  9.15409e-07
 Reference value :  1.00000e-06
 Reference value :  1.00001e-06
 Reference value :  1.00003e-06
 Reference value :  1.00007e-06
 Reference value :  1.00010e-06
 Reference value :  1.00010e-06
 Reference value :  1.00011e-06
 Reference value :  1.00013e-06
 Reference value :  1.00016e-06
 Reference value :  1.00023e-06
 Reference value :  1.00036e-06
 Reference value :  1.00054e-06
 Reference value :  1.00089e-06
 Reference value :  1.00151e-06
 Reference value :  1.00220e-06
 Reference value :  1.00282e-06
 Reference value :  1.00346e-06
 Reference value :  1.00415e-06
 Reference value :  1.00499e-06
 Reference value :  1.00587e-06
 Reference value :  1.00672e-06
 Reference value :  1.00777e-06
 Reference value :  1.00888e-06
 Reference value :  1.00997e-06
 Reference value :  1.01100e-06
 Reference value :  1.01243e-06
 Reference value :  1.01413e-06
 Reference value :  1.01684e-06
 Reference value :  1.01885e-06
 Reference value :  1.02101e-06
 Reference value :  1.02262e-06
 Reference value :  1.02414e-06
 Reference value :  1.02558e-06
 Reference value :  1.02714e-06
 Reference value :  1.02887e-06
 Reference value :  1.03113e-06
 Reference value :  1.03350e-06
 Reference value :  1.03815e-06
 Reference value :  1.04458e-06
 Reference value :  1.05583e-06
 Reference value :  1.07396e-06
 Reference value :  1.09985e-06
 Reference value :  1.13934e-06
 Reference value :  1.21715e-06
 Reference value :  1.25010e-06
 Reference value :  1.25011e-06
 Reference value :  1.25013e-06
 Reference value :  1.25017e-06
 Reference value :  1.25020e-06
 Reference value :  1.25020e-06
 Reference value :  1.25020e-06
 Reference value :  1.25021e-06
 Reference value :  1.25021e-06
 Reference value :  1.25022e-06
 Reference value :  1.25025e-06
 Reference value :  1.25029e-06
 Reference value :  1.25039e-06
 Reference value :  1.25058e-06
 Reference value :  1.25092e-06
 Reference value :  1.25135e-06
 Reference value :  1.25187e-06
 Reference value :  1.25248e-06
 Reference value :  1.25324e-06
 Reference value :  1.25412e-06
 Reference value :  1.25531e-06
 Reference value :  1.25621e-06
 Reference value :  1.25716e-06
 Reference value :  1.25824e-06
 Reference value :  1.25979e-06
 Reference value :  1.26124e-06
 Reference value :  1.26376e-06
 Reference value :  1.26673e-06
 Reference value :  1.27221e-06
 Reference value :  1.28319e-06
 Reference value :  1.30281e-06
 Reference value :  1.34205e-06
 Reference value :  1.41663e-06
 Reference value :  1.50000e-06
 Reference value :  1.50001e-06
 Reference value :  1.50003e-06
 Reference value :  1.50007e-06
 Reference value :  1.50010e-06
 Reference value :  1.50010e-06
 Reference value :  1.50011e-06
 Reference value :  1.50016e-06
 Reference value :  1.50023e-06
 Reference value :  1.50036e-06
 Reference value :  1.50053e-06
 Reference value :  1.50087e-06
 Reference value :  1.50145e-06
 Reference value :  1.50221e-06
 Reference value :  1.50288e-06
 Reference value :  1.50356e-06
 Reference value :  1.50426e-06
 Reference value :  1.50525e-06
 Reference value :  1.50620e-06
 Reference value :  1.50718e-06
 Reference value :  1.50863e-06
 Reference value :  1.51001e-06
 Reference value :  1.51130e-06
 Reference value :  1.51269e-06
 Reference value :  1.51421e-06
 Reference value :  1.51589e-06
 Reference value :  1.51744e-06
 Reference value :  1.51949e-06
 Reference value :  1.52170e-06
 Reference value :  1.52556e-06
 Reference value :  1.53142e-06
 Reference value :  1.54166e-06
 Reference value :  1.56066e-06
 Reference value :  1.59414e-06
 Reference value :  1.65797e-06
 Reference value :  1.75010e-06
 Reference value :  1.75011e-06
 Reference value :  1.75013e-06
 Reference value :  1.75017e-06
 Reference value :  1.75020e-06
 Reference value :  1.75020e-06
 Reference value :  1.75020e-06
 Reference value :  1.75021e-06
 Reference value :  1.75021e-06
 Reference value :  1.75022e-06
 Reference value :  1.75025e-06
 Reference value :  1.75029e-06
 Reference value :  1.75039e-06
 Reference value :  1.75058e-06
 Reference value :  1.75092e-06
 Reference value :  1.75135e-06
 Reference value :  1.75187e-06
 Reference value :  1.75248e-06
 Reference value :  1.75324e-06
 Reference value :  1.75411e-06
 Reference value :  1.75529e-06
 Reference value :  1.75619e-06
 Reference value :  1.75714e-06
 Reference value :  1.75818e-06
 Reference value :  1.75931e-06
 Reference value :  1.76052e-06
 Reference value :  1.76295e-06
 Reference value :  1.76558e-06
 Reference value :  1.77020e-06
 Reference value :  1.77854e-06
 Reference value :  1.79522e-06
 Reference value :  1.82859e-06
 Reference value :  1.89349e-06
 Reference value :  2.00000e-06
 Reference value :  2.00001e-06
 Reference value :  2.00003e-06
 Reference value :  2.00007e-06
 Reference value :  2.00010e-06
 Reference value :  2.00010e-06
 Reference value :  2.00011e-06
 Reference value :  2.00013e-06
 Reference value :  2.00016e-06
 Reference value :  2.00023e-06
 Reference value :  2.00036e-06
 Reference value :  2.00053e-06
 Reference value :  2.00087e-06
 Reference value :  2.00145e-06
 Reference value :  2.00221e-06
 Reference value :  2.00288e-06
 Reference value :  2.00356e-06
 Reference value :  2.00427e-06
 Reference value :  2.00525e-06
 Reference value :  2.00603e-06
 Reference value :  2.00686e-06
 Reference value :  2.00785e-06
 Reference value :  2.00893e-06
 Reference value :  2.00992e-06
 Reference value :  2.01096e-06
 Reference value :  2.01237e-06
 Reference value :  2.01398e-06
 Reference value :  2.01628e-06
 Reference value :  2.01849e-06
 Reference value :  2.02053e-06
 Reference value :  2.02215e-06
 Reference value :  2.02370e-06
 Reference value :  2.02530e-06
 Reference value :  2.02697e-06
 Reference value :  2.02890e-06
 Reference value :  2.03082e-06
 Reference value :  2.03342e-06
 Reference value :  2.03795e-06
 Reference value :  2.04535e-06
 Reference value :  2.05620e-06
 Reference value :  2.06957e-06
 Reference value :  2.08188e-06
 Reference value :  2.09116e-06
 Reference value :  2.10017e-06
 Reference value :  2.10749e-06
 Reference value :  2.11379e-06
 Reference value :  2.12556e-06
 Reference value :  2.14398e-06
 Reference value :  2.18397e-06
 Reference value :  2.22243e-06
 Reference value :  2.25011e-06
 Reference value :  2.25013e-06
 Reference value :  2.25017e-06
 Reference value :  2.25020e-06
 Reference value :  2.25020e-06
 Reference value :  2.25020e-06
 Reference value :  2.25021e-06
 Reference value :  2.25025e-06
 Reference value :  2.25030e-06
 Reference value :  2.25039e-06
 Reference value :  2.25059e-06
 Reference value :  2.25094e-06
 Reference value :  2.25136e-06
 Reference value :  2.25188e-06
 Reference value :  2.25249e-06
 Reference value :  2.25325e-06
 Reference value :  2.25413e-06
 Reference value :  2.25526e-06
 Reference value :  2.25621e-06
 Reference value :  2.25719e-06
 Reference value :  2.25829e-06
 Reference value :  2.25984e-06
 Reference value :  2.26148e-06
 Reference value :  2.26387e-06
 Reference value :  2.26705e-06
 Reference value :  2.27252e-06
 Reference value :  2.28344e-06
 Reference value :  2.30277e-06
 Reference value :  2.34041e-06
 Reference value :  2.41131e-06
 Reference value :  2.50000e-06
 Reference value :  2.50001e-06
 Reference value :  2.50003e-06
 Reference value :  2.50007e-06
 Reference value :  2.50010e-06
 Reference value :  2.50010e-06
 Reference value :  2.50011e-06
 Reference value :  2.50013e-06
 Reference value :  2.50016e-06
 Reference value :  2.50023e-06
 Reference value :  2.50036e-06
 Reference value :  2.50053e-06
 Reference value :  2.50087e-06
 Reference value :  2.50145e-06
 Reference value :  2.50221e-06
 Reference value :  2.50284e-06
 Reference value :  2.50350e-06
 Reference value :  2.50419e-06
 Reference value :  2.50515e-06
 Reference value :  2.50611e-06
 Reference value :  2.50707e-06
 Reference value :  2.50855e-06
 Reference value :  2.50991e-06
 Reference value :  2.51128e-06
 Reference value :  2.51284e-06
 Reference value :  2.51460e-06
 Reference value :  2.51628e-06
 Reference value :  2.51820e-06
 Reference value :  2.52041e-06
 Reference value :  2.53028e-06
 Reference value :  2.54136e-06
 Reference value :  2.56285e-06
 Reference value :  2.60151e-06
 Reference value :  2.67883e-06
 Reference value :  2.75010e-06
 Reference value :  2.75011e-06
 Reference value :  2.75013e-06
 Reference value :  2.75017e-06
 Reference value :  2.75020e-06
 Reference value :  2.75020e-06
 Reference value :  2.75020e-06
 Reference value :  2.75021e-06
 Reference value :  2.75021e-06
 Reference value :  2.75022e-06
 Reference value :  2.75025e-06
 Reference value :  2.75030e-06
 Reference value :  2.75039e-06
 Reference value :  2.75059e-06
 Reference value :  2.75094e-06
 Reference value :  2.75136e-06
 Reference value :  2.75188e-06
 Reference value :  2.75249e-06
 Reference value :  2.75325e-06
 Reference value :  2.75413e-06
 Reference value :  2.75531e-06
 Reference value :  2.75623e-06
 Reference value :  2.75720e-06
 Reference value :  2.75823e-06
 Reference value :  2.75934e-06
 Reference value :  2.76056e-06
 Reference value :  2.76184e-06
 Reference value :  2.76324e-06
 Reference value :  2.76536e-06
 Reference value :  2.76769e-06
 Reference value :  2.77128e-06
 Reference value :  2.77695e-06
 Reference value :  2.78829e-06
 Reference value :  2.81096e-06
 Reference value :  2.85626e-06
 Reference value :  2.94686e-06
 Reference value :  3.00000e-06
 Reference value :  3.00001e-06
 Reference value :  3.00003e-06
 Reference value :  3.00007e-06
 Reference value :  3.00010e-06
 Reference value :  3.00010e-06
 Reference value :  3.00011e-06
 Reference value :  3.00013e-06
 Reference value :  3.00016e-06
 Reference value :  3.00023e-06
 Reference value :  3.00036e-06
 Reference value :  3.00053e-06
 Reference value :  3.00087e-06
 Reference value :  3.00144e-06
 Reference value :  3.00221e-06
 Reference value :  3.00288e-06
 Reference value :  3.00356e-06
 Reference value :  3.00427e-06
 Reference value :  3.00513e-06
 Reference value :  3.00590e-06
 Reference value :  3.00673e-06
 Reference value :  3.00780e-06
 Reference value :  3.00879e-06
 Reference value :  3.00972e-06
 Reference value :  3.01075e-06
 Reference value :  3.01209e-06
 Reference value :  3.01365e-06
 Reference value :  3.01522e-06
 Reference value :  3.01693e-06
 Reference value :  3.01855e-06
 Reference value :  3.02025e-06
 Reference value :  3.02150e-06
 Reference value :  3.02268e-06
 Reference value :  3.02410e-06
 Reference value :  3.02558e-06
 Reference value :  3.02696e-06
 Reference value :  3.02869e-06
 Reference value :  3.03085e-06
 Reference value :  3.03321e-06
 Reference value :  3.03763e-06
 Reference value :  3.04410e-06
 Reference value :  3.05077e-06
 Reference value :  3.05696e-06
 Reference value :  3.06219e-06
 Reference value :  3.06502e-06
 Reference value :  3.06746e-06
 Reference value :  3.07011e-06
 Reference value :  3.07438e-06
 Reference value :  3.07935e-06
 Reference value :  3.08689e-06
 Reference value :  3.09757e-06
 Reference value :  3.11282e-06
 Reference value :  3.13909e-06
 Reference value :  3.16833e-06
 Reference value :  3.20138e-06
 Reference value :  3.23395e-06
 Reference value :  3.25010e-06
 Reference value :  3.25011e-06
 Reference value :  3.25013e-06
 Reference value :  3.25017e-06
 Reference value :  3.25020e-06
 Reference value :  3.25020e-06
 Reference value :  3.25020e-06
 Reference value :  3.25021e-06
 Reference value :  3.25021e-06
 Reference value :  3.25022e-06
 Reference value :  3.25025e-06
 Reference value :  3.25029e-06
 Reference value :  3.25039e-06
 Reference value :  3.25058e-06
 Reference value :  3.25092e-06
 Reference value :  3.25134e-06
 Reference value :  3.25187e-06
 Reference value :  3.25248e-06
 Reference value :  3.25323e-06
 Reference value :  3.25411e-06
 Reference value :  3.25530e-06
 Reference value :  3.25619e-06
 Reference value :  3.25713e-06
 Reference value :  3.25821e-06
 Reference value :  3.25976e-06
 Reference value :  3.26118e-06
 Reference value :  3.26374e-06
 Reference value :  3.26664e-06
 Reference value :  3.28298e-06
 Reference value :  3.30219e-06
 Reference value :  3.34061e-06
 Reference value :  3.41359e-06
 Reference value :  3.50000e-06
 Reference value :  3.50001e-06
 Reference value :  3.50007e-06
 Reference value :  3.50010e-06
 Reference value :  3.50013e-06
 Reference value :  3.50023e-06
 Reference value :  3.50036e-06
 Reference value :  3.50087e-06
 Reference value :  3.50145e-06
 Reference value :  3.50221e-06
 Reference value :  3.50288e-06
 Reference value :  3.50356e-06
 Reference value :  3.50426e-06
 Reference value :  3.50524e-06
 Reference value :  3.50619e-06
 Reference value :  3.50717e-06
 Reference value :  3.50861e-06
 Reference value :  3.51000e-06
 Reference value :  3.51128e-06
 Reference value :  3.51264e-06
 Reference value :  3.51417e-06
 Reference value :  3.51583e-06
 Reference value :  3.51764e-06
 Reference value :  3.51966e-06
 Reference value :  3.52354e-06
 Reference value :  3.52953e-06
 Reference value :  3.54150e-06
 Reference value :  3.56414e-06
 Reference value :  3.60476e-06
 Reference value :  3.68496e-06
 Reference value :  3.75010e-06
 Reference value :  3.75011e-06
 Reference value :  3.75013e-06
 Reference value :  3.75017e-06
 Reference value :  3.75020e-06
 Reference value :  3.75020e-06
 Reference value :  3.75020e-06
 Reference value :  3.75021e-06
 Reference value :  3.75021e-06
 Reference value :  3.75022e-06
 Reference value :  3.75025e-06
 Reference value :  3.75030e-06
 Reference value :  3.75039e-06
 Reference value :  3.75059e-06
 Reference value :  3.75094e-06
 Reference value :  3.75136e-06
 Reference value :  3.75188e-06
 Reference value :  3.75249e-06
 Reference value :  3.75325e-06
 Reference value :  3.75413e-06
 Reference value :  3.75531e-06
 Reference value :  3.75623e-06
 Reference value :  3.75719e-06
 Reference value :  3.75822e-06
 Reference value :  3.75933e-06
 Reference value :  3.76056e-06
 Reference value :  3.76300e-06
 Reference value :  3.76566e-06
 Reference value :  3.77032e-06
 Reference value :  3.77880e-06
 Reference value :  3.79575e-06
 Reference value :  3.82933e-06
 Reference value :  3.89435e-06
 Reference value :  4.00000e-06
 Reference value :  4.00001e-06
 Reference value :  4.00003e-06
 Reference value :  4.00007e-06
 Reference value :  4.00010e-06
 Reference value :  4.00010e-06
 Reference value :  4.00011e-06
 Reference value :  4.00013e-06
 Reference value :  4.00016e-06
 Reference value :  4.00023e-06
 Reference value :  4.00036e-06
 Reference value :  4.00053e-06
 Reference value :  4.00087e-06
 Reference value :  4.00145e-06
 Reference value :  4.00221e-06
 Reference value :  4.00288e-06
 Reference value :  4.00356e-06
 Reference value :  4.00427e-06
 Reference value :  4.00525e-06
 Reference value :  4.00603e-06
 Reference value :  4.00685e-06
 Reference value :  4.00785e-06
 Reference value :  4.00893e-06
 Reference value :  4.00993e-06
 Reference value :  4.01098e-06
 Reference value :  4.01233e-06
 Reference value :  4.01406e-06
 Reference value :  4.01669e-06
 Reference value :  4.01868e-06
 Reference value :  4.02081e-06
 Reference value :  4.02232e-06
 Reference value :  4.02380e-06
 Reference value :  4.02519e-06
 Reference value :  4.02677e-06
 Reference value :  4.02842e-06
 Reference value :  4.03064e-06
 Reference value :  4.03289e-06
 Reference value :  4.03740e-06
 Reference value :  4.04249e-06
 Reference value :  4.04998e-06
 Reference value :  4.05807e-06
 Reference value :  4.06379e-06
 Reference value :  4.06939e-06
 Reference value :  4.07594e-06
 Reference value :  4.08266e-06
 Reference value :  4.08820e-06
 Reference value :  4.10342e-06
 Reference value :  4.13280e-06
 Reference value :  4.19357e-06
 Reference value :  4.23863e-06
 Reference value :  4.25010e-06
 Reference value :  4.25011e-06
 Reference value :  4.25017e-06
 Reference value :  4.25020e-06
 Reference value :  4.25020e-06
 Reference value :  4.25020e-06
 Reference value :  4.25021e-06
 Reference value :  4.25021e-06
 Reference value :  4.25022e-06
 Reference value :  4.25025e-06
 Reference value :  4.25030e-06
 Reference value :  4.25039e-06
 Reference value :  4.25059e-06
 Reference value :  4.25093e-06
 Reference value :  4.25136e-06
 Reference value :  4.25188e-06
 Reference value :  4.25249e-06
 Reference value :  4.25325e-06
 Reference value :  4.25413e-06
 Reference value :  4.25526e-06
 Reference value :  4.25621e-06
 Reference value :  4.25719e-06
 Reference value :  4.25828e-06
 Reference value :  4.26146e-06
 Reference value :  4.26703e-06
 Reference value :  4.27250e-06
 Reference value :  4.28343e-06
 Reference value :  4.30245e-06
 Reference value :  4.33998e-06
 Reference value :  4.41242e-06
 Reference value :  4.50000e-06
 Reference value :  4.50001e-06
 Reference value :  4.50003e-06
 Reference value :  4.50007e-06
 Reference value :  4.50010e-06
 Reference value :  4.50010e-06
 Reference value :  4.50011e-06
 Reference value :  4.50013e-06
 Reference value :  4.50016e-06
 Reference value :  4.50023e-06
 Reference value :  4.50036e-06
 Reference value :  4.50053e-06
 Reference value :  4.50087e-06
 Reference value :  4.50145e-06
 Reference value :  4.50221e-06
 Reference value :  4.50284e-06
 Reference value :  4.50350e-06
 Reference value :  4.50419e-06
 Reference value :  4.50515e-06
 Reference value :  4.50611e-06
 Reference value :  4.50705e-06
 Reference value :  4.50854e-06
 Reference value :  4.50989e-06
 Reference value :  4.51119e-06
 Reference value :  4.51260e-06
 Reference value :  4.51393e-06
 Reference value :  4.51546e-06
 Reference value :  4.51706e-06
 Reference value :  4.51880e-06
 Reference value :  4.52230e-06
 Reference value :  4.52930e-06
 Reference value :  4.54113e-06
 Reference value :  4.56480e-06
 Reference value :  4.60922e-06
 Reference value :  4.69806e-06
 Reference value :  4.75010e-06
 Reference value :  4.75011e-06
 Reference value :  4.75013e-06
 Reference value :  4.75017e-06
 Reference value :  4.75020e-06
 Reference value :  4.75020e-06
 Reference value :  4.75020e-06
 Reference value :  4.75021e-06
 Reference value :  4.75021e-06
 Reference value :  4.75022e-06
 Reference value :  4.75025e-06
 Reference value :  4.75030e-06
 Reference value :  4.75039e-06
 Reference value :  4.75059e-06
 Reference value :  4.75093e-06
 Reference value :  4.75136e-06
 Reference value :  4.75188e-06
 Reference value :  4.75249e-06
 Reference value :  4.75325e-06
 Reference value :  4.75413e-06
 Reference value :  4.75531e-06
 Reference value :  4.75623e-06
 Reference value :  4.75720e-06
 Reference value :  4.75822e-06
 Reference value :  4.75933e-06
 Reference value :  4.76056e-06
 Reference value :  4.76184e-06
 Reference value :  4.76324e-06
 Reference value :  4.76537e-06
 Reference value :  4.76769e-06
 Reference value :  4.77130e-06
 Reference value :  4.77700e-06
 Reference value :  4.78841e-06
 Reference value :  4.81121e-06
 Reference value :  4.85645e-06
 Reference value :  4.94693e-06
 Reference value :  5.00000e-06
 Reference value :  5.00001e-06
 Reference value :  5.00003e-06
 Reference value :  5.00007e-06
 Reference value :  5.00010e-06
 Reference value :  5.00010e-06
 Reference value :  5.00013e-06
 Reference value :  5.00016e-06
 Reference value :  5.00023e-06
 Reference value :  5.00036e-06
 Reference value :  5.00087e-06
 Reference value :  5.00144e-06
 Reference value :  5.00221e-06
 Reference value :  5.00288e-06
 Reference value :  5.00356e-06
 Reference value :  5.00427e-06
 Reference value :  5.00524e-06
 Reference value :  5.00602e-06
 Reference value :  5.00684e-06
 Reference value :  5.00781e-06
 Reference value :  5.00872e-06
 Reference value :  5.00969e-06
 Reference value :  5.01191e-06
 Reference value :  5.01360e-06
 Reference value :  5.01479e-06
 Reference value :  5.01618e-06
 Reference value :  5.01759e-06
 Reference value :  5.01923e-06
 Reference value :  5.02107e-06
 Reference value :  5.02254e-06
 Reference value :  5.02408e-06
 Reference value :  5.02554e-06
 Reference value :  5.02709e-06
 Reference value :  5.02882e-06
 Reference value :  5.03019e-06
 Reference value :  5.03155e-06
 Reference value :  5.03303e-06
 Reference value :  5.03458e-06
 Reference value :  5.03620e-06
 Reference value :  5.03942e-06
 Reference value :  5.04530e-06
 Reference value :  5.05273e-06
 Reference value :  5.06499e-06
 Reference value :  5.07851e-06
 Reference value :  5.09398e-06
 Reference value :  5.11091e-06
 Reference value :  5.13374e-06
 Reference value :  5.17610e-06
 Reference value :  5.25010e-06
 Reference value :  5.25011e-06
 Reference value :  5.25013e-06
 Reference value :  5.25017e-06
 Reference value :  5.25020e-06
 Reference value :  5.25020e-06
 Reference value :  5.25020e-06
 Reference value :  5.25021e-06
 Reference value :  5.25021e-06
 Reference value :  5.25022e-06
 Reference value :  5.25025e-06
 Reference value :  5.25030e-06
 Reference value :  5.25039e-06
 Reference value :  5.25059e-06
 Reference value :  5.25094e-06
 Reference value :  5.25136e-06
 Reference value :  5.25188e-06
 Reference value :  5.25249e-06
 Reference value :  5.25326e-06
 Reference value :  5.25413e-06
 Reference value :  5.25532e-06
 Reference value :  5.25622e-06
 Reference value :  5.25718e-06
 Reference value :  5.25825e-06
 Reference value :  5.25981e-06
 Reference value :  5.26126e-06
 Reference value :  5.26377e-06
 Reference value :  5.26676e-06
 Reference value :  5.27228e-06
 Reference value :  5.28333e-06
 Reference value :  5.30236e-06
 Reference value :  5.34041e-06
 Reference value :  5.41126e-06
 Reference value :  5.50000e-06
 Reference value :  5.50001e-06
 Reference value :  5.50003e-06
 Reference value :  5.50007e-06
 Reference value :  5.50010e-06
 Reference value :  5.50010e-06
 Reference value :  5.50011e-06
 Reference value :  5.50013e-06
 Reference value :  5.50016e-06
 Reference value :  5.50023e-06
 Reference value :  5.50036e-06
 Reference value :  5.50053e-06
 Reference value :  5.50087e-06
 Reference value :  5.50145e-06
 Reference value :  5.50221e-06
 Reference value :  5.50288e-06
 Reference value :  5.50356e-06
 Reference value :  5.50426e-06
 Reference value :  5.50524e-06
 Reference value :  5.50619e-06
 Reference value :  5.50715e-06
 Reference value :  5.50859e-06
 Reference value :  5.50997e-06
 Reference value :  5.51122e-06
 Reference value :  5.51249e-06
 Reference value :  5.51373e-06
 Reference value :  5.51520e-06
 Reference value :  5.51674e-06
 Reference value :  5.52178e-06
 Reference value :  5.53995e-06
 Reference value :  5.60605e-06
 Reference value :  5.75010e-06
 Reference value :  5.75011e-06
 Reference value :  5.75013e-06
 Reference value :  5.75017e-06
 Reference value :  5.75020e-06
 Reference value :  5.75020e-06
 Reference value :  5.75020e-06
 Reference value :  5.75021e-06
 Reference value :  5.75021e-06
 Reference value :  5.75025e-06
 Reference value :  5.75030e-06
 Reference value :  5.75059e-06
 Reference value :  5.75094e-06
 Reference value :  5.75136e-06
 Reference value :  5.75188e-06
 Reference value :  5.75249e-06
 Reference value :  5.75326e-06
 Reference value :  5.75413e-06
 Reference value :  5.75531e-06
 Reference value :  5.75623e-06
 Reference value :  5.75719e-06
 Reference value :  5.75822e-06
 Reference value :  5.75933e-06
 Reference value :  5.76057e-06
 Reference value :  5.76300e-06
 Reference value :  5.76567e-06
 Reference value :  5.77033e-06
 Reference value :  5.77886e-06
 Reference value :  5.79594e-06
 Reference value :  5.82924e-06
 Reference value :  5.89496e-06
 Reference value :  6.00000e-06
 Reference value :  6.00001e-06
 Reference value :  6.00003e-06
 Reference value :  6.00007e-06
 Reference value :  6.00010e-06
 Reference value :  6.00010e-06
 Reference value :  6.00011e-06
 Reference value :  6.00013e-06
 Reference value :  6.00016e-06
 Reference value :  6.00023e-06
 Reference value :  6.00036e-06
 Reference value :  6.00053e-06
 Reference value :  6.00087e-06
 Reference value :  6.00145e-06
 Reference value :  6.00221e-06
 Reference value :  6.00288e-06
 Reference value :  6.00356e-06
 Reference value :  6.00427e-06
 Reference value :  6.00525e-06
 Reference value :  6.00603e-06
 Reference value :  6.00686e-06
 Reference value :  6.00785e-06
 Reference value :  6.00867e-06
 Reference value :  6.00958e-06
 Reference value :  6.01058e-06
 Reference value :  6.01175e-06
 Reference value :  6.01355e-06
 Reference value :  6.01581e-06
 Reference value :  6.01814e-06
 Reference value :  6.02062e-06
 Reference value :  6.02240e-06
 Reference value :  6.02408e-06
 Reference value :  6.02574e-06
 Reference value :  6.02755e-06
 Reference value :  6.02949e-06
 Reference value :  6.03186e-06
 Reference value :  6.03435e-06
 Reference value :  6.03931e-06
 Reference value :  6.04520e-06
 Reference value :  6.05277e-06
 Reference value :  6.06051e-06
 Reference value :  6.06613e-06
 Reference value :  6.07154e-06
 Reference value :  6.07854e-06
 Reference value :  6.08556e-06
 Reference value :  6.09550e-06
 Reference value :  6.10558e-06
 Reference value :  6.11930e-06
 Reference value :  6.13887e-06
 Reference value :  6.16539e-06
 Reference value :  6.18882e-06
 Reference value :  6.20089e-06
 Reference value :  6.21498e-06
 Reference value :  6.23048e-06
 Reference value :  6.24393e-06
 Reference value :  6.25010e-06
 Reference value :  6.25013e-06
 Reference value :  6.25017e-06
 Reference value :  6.25020e-06
 Reference value :  6.25020e-06
 Reference value :  6.25020e-06
 Reference value :  6.25021e-06
 Reference value :  6.25021e-06
 Reference value :  6.25022e-06
 Reference value :  6.25025e-06
 Reference value :  6.25030e-06
 Reference value :  6.25039e-06
 Reference value :  6.25059e-06
 Reference value :  6.25094e-06
 Reference value :  6.25136e-06
 Reference value :  6.25188e-06
 Reference value :  6.25249e-06
 Reference value :  6.25326e-06
 Reference value :  6.25413e-06
 Reference value :  6.25533e-06
 Reference value :  6.25624e-06
 Reference value :  6.25720e-06
 Reference value :  6.25829e-06
 Reference value :  6.25985e-06
 Reference value :  6.26134e-06
 Reference value :  6.26381e-06
 Reference value :  6.26688e-06
 Reference value :  6.27246e-06
 Reference value :  6.28362e-06
 Reference value :  6.30277e-06
 Reference value :  6.34105e-06
 Reference value :  6.41157e-06
 Reference value :  6.50000e-06
 Reference value :  6.50001e-06
 Reference value :  6.50003e-06
 Reference value :  6.50007e-06
 Reference value :  6.50010e-06
 Reference value :  6.50010e-06
 Reference value :  6.50013e-06
 Reference value :  6.50023e-06
 Reference value :  6.50036e-06
 Reference value :  6.50053e-06
 Reference value :  6.50087e-06
 Reference value :  6.50145e-06
 Reference value :  6.50221e-06
 Reference value :  6.50288e-06
 Reference value :  6.50356e-06
 Reference value :  6.50426e-06
 Reference value :  6.50523e-06
 Reference value :  6.50618e-06
 Reference value :  6.50715e-06
 Reference value :  6.50859e-06
 Reference value :  6.50997e-06
 Reference value :  6.51125e-06
 Reference value :  6.51264e-06
 Reference value :  6.51391e-06
 Reference value :  6.51541e-06
 Reference value :  6.51692e-06
 Reference value :  6.51864e-06
 Reference value :  6.52206e-06
 Reference value :  6.52891e-06
 Reference value :  6.54041e-06
 Reference value :  6.56341e-06
 Reference value :  6.60643e-06
 Reference value :  6.68666e-06
 Reference value :  6.75010e-06
 Reference value :  6.75011e-06
 Reference value :  6.75013e-06
 Reference value :  6.75017e-06
 Reference value :  6.75020e-06
 Reference value :  6.75020e-06
 Reference value :  6.75020e-06
 Reference value :  6.75021e-06
 Reference value :  6.75021e-06
 Reference value :  6.75022e-06
 Reference value :  6.75025e-06
 Reference value :  6.75030e-06
 Reference value :  6.75039e-06
 Reference value :  6.75059e-06
 Reference value :  6.75094e-06
 Reference value :  6.75136e-06
 Reference value :  6.75188e-06
 Reference value :  6.75249e-06
 Reference value :  6.75326e-06
 Reference value :  6.75413e-06
 Reference value :  6.75531e-06
 Reference value :  6.75623e-06
 Reference value :  6.75720e-06
 Reference value :  6.75822e-06
 Reference value :  6.75933e-06
 Reference value :  6.76056e-06
 Reference value :  6.76299e-06
 Reference value :  6.76567e-06
 Reference value :  6.77033e-06
 Reference value :  6.77881e-06
 Reference value :  6.79578e-06
 Reference value :  6.82890e-06
 Reference value :  6.89450e-06
 Reference value :  7.00000e-06
 Reference value :  7.00001e-06
 Reference value :  7.00003e-06
 Reference value :  7.00007e-06
 Reference value :  7.00010e-06
 Reference value :  7.00010e-06
 Reference value :  7.00011e-06
 Reference value :  7.00013e-06
 Reference value :  7.00016e-06
 Reference value :  7.00023e-06
 Reference value :  7.00036e-06
 Reference value :  7.00053e-06
 Reference value :  7.00087e-06
 Reference value :  7.00145e-06
 Reference value :  7.00221e-06
 Reference value :  7.00288e-06
 Reference value :  7.00356e-06
 Reference value :  7.00427e-06
 Reference value :  7.00525e-06
 Reference value :  7.00603e-06
 Reference value :  7.00685e-06
 Reference value :  7.00784e-06
 Reference value :  7.00870e-06
 Reference value :  7.00964e-06
 Reference value :  7.01183e-06
 Reference value :  7.01358e-06
 Reference value :  7.01607e-06
 Reference value :  7.01835e-06
 Reference value :  7.02069e-06
 Reference value :  7.02243e-06
 Reference value :  7.02407e-06
 Reference value :  7.02578e-06
 Reference value :  7.02755e-06
 Reference value :  7.02951e-06
 Reference value :  7.03173e-06
 Reference value :  7.03418e-06
 Reference value :  7.03776e-06
 Reference value :  7.04293e-06
 Reference value :  7.04859e-06
 Reference value :  7.05447e-06
 Reference value :  7.06051e-06
 Reference value :  7.06657e-06
 Reference value :  7.07231e-06
 Reference value :  7.09194e-06
 Reference value :  7.11059e-06
 Reference value :  7.13411e-06
 Reference value :  7.17171e-06
 Reference value :  7.20713e-06
 Reference value :  7.25010e-06
 Reference value :  7.25011e-06
 Reference value :  7.25013e-06
 Reference value :  7.25017e-06
 Reference value :  7.25020e-06
 Reference value :  7.25020e-06
 Reference value :  7.25020e-06
 Reference value :  7.25021e-06
 Reference value :  7.25021e-06
 Reference value :  7.25022e-06
 Reference value :  7.25025e-06
 Reference value :  7.25029e-06
 Reference value :  7.25039e-06
 Reference value :  7.25058e-06
 Reference value :  7.25092e-06
 Reference value :  7.25135e-06
 Reference value :  7.25187e-06
 Reference value :  7.25248e-06
 Reference value :  7.25324e-06
 Reference value :  7.25412e-06
 Reference value :  7.25525e-06
 Reference value :  7.25628e-06
 Reference value :  7.25725e-06
 Reference value :  7.25842e-06
 Reference value :  7.25993e-06
 Reference value :  7.26172e-06
 Reference value :  7.26402e-06
 Reference value :  7.26746e-06
 Reference value :  7.27310e-06
 Reference value :  7.28437e-06
 Reference value :  7.30402e-06
 Reference value :  7.34144e-06
 Reference value :  7.41137e-06
 Reference value :  7.48415e-06
 Reference value :  7.50000e-06
 Reference value :  7.50001e-06
 Reference value :  7.50003e-06
 Reference value :  7.50007e-06
 Reference value :  7.50010e-06
 Reference value :  7.50010e-06
 Reference value :  7.50011e-06
 Reference value :  7.50013e-06
 Reference value :  7.50016e-06
 Reference value :  7.50023e-06
 Reference value :  7.50036e-06
 Reference value :  7.50053e-06
 Reference value :  7.50087e-06
 Reference value :  7.50149e-06
 Reference value :  7.50218e-06
 Reference value :  7.50280e-06
 Reference value :  7.50345e-06
 Reference value :  7.50512e-06
 Reference value :  7.50601e-06
 Reference value :  7.50701e-06
 Reference value :  7.50826e-06
 Reference value :  7.50972e-06
 Reference value :  7.51115e-06
 Reference value :  7.51267e-06
 Reference value :  7.51422e-06
 Reference value :  7.51594e-06
 Reference value :  7.51799e-06
 Reference value :  7.52356e-06
 Reference value :  7.53021e-06
 Reference value :  7.56073e-06
 Reference value :  7.66581e-06
 Reference value :  7.73393e-06
 Reference value :  7.75010e-06
 Reference value :  7.75011e-06
 Reference value :  7.75013e-06
 Reference value :  7.75017e-06
 Reference value :  7.75020e-06
 Reference value :  7.75020e-06
 Reference value :  7.75020e-06
 Reference value :  7.75021e-06
 Reference value :  7.75021e-06
 Reference value :  7.75022e-06
 Reference value :  7.75025e-06
 Reference value :  7.75029e-06
 Reference value :  7.75039e-06
 Reference value :  7.75058e-06
 Reference value :  7.75092e-06
 Reference value :  7.75135e-06
 Reference value :  7.75187e-06
 Reference value :  7.75248e-06
 Reference value :  7.75324e-06
 Reference value :  7.75412e-06
 Reference value :  7.75529e-06
 Reference value :  7.75621e-06
 Reference value :  7.75718e-06
 Reference value :  7.75821e-06
 Reference value :  7.75932e-06
 Reference value :  7.76055e-06
 Reference value :  7.76298e-06
 Reference value :  7.76568e-06
 Reference value :  7.77038e-06
 Reference value :  7.77900e-06
 Reference value :  7.79625e-06
 Reference value :  7.82927e-06
 Reference value :  7.89435e-06
 Reference value :  8.00000e-06
 Reference value :  8.00001e-06
 Reference value :  8.00003e-06
 Reference value :  8.00007e-06
 Reference value :  8.00010e-06
 Reference value :  8.00010e-06
 Reference value :  8.00013e-06
 Reference value :  8.00023e-06
 Reference value :  8.00053e-06
 Reference value :  8.00087e-06
 Reference value :  8.00150e-06
 Reference value :  8.00218e-06
 Reference value :  8.00280e-06
 Reference value :  8.00345e-06
 Reference value :  8.00414e-06
 Reference value :  8.00499e-06
 Reference value :  8.00588e-06
 Reference value :  8.00669e-06
 Reference value :  8.00773e-06
 Reference value :  8.00871e-06
 Reference value :  8.00974e-06
 Reference value :  8.01072e-06
 Reference value :  8.01204e-06
 Reference value :  8.01371e-06
 Reference value :  8.01602e-06
 Reference value :  8.01872e-06
 Reference value :  8.02109e-06
 Reference value :  8.02353e-06
 Reference value :  8.02726e-06
 Reference value :  8.03094e-06
 Reference value :  8.03735e-06
 Reference value :  8.04600e-06
 Reference value :  8.05944e-06
 Reference value :  8.08152e-06
 Reference value :  8.11895e-06
 Reference value :  8.18093e-06
 Reference value :  8.25010e-06
 Reference value :  8.25011e-06
 Reference value :  8.25013e-06
 Reference value :  8.25017e-06
 Reference value :  8.25020e-06
 Reference value :  8.25020e-06
 Reference value :  8.25020e-06
 Reference value :  8.25021e-06
 Reference value :  8.25021e-06
 Reference value :  8.25022e-06
 Reference value :  8.25025e-06
 Reference value :  8.25030e-06
 Reference value :  8.25039e-06
 Reference value :  8.25059e-06
 Reference value :  8.25098e-06
 Reference value :  8.25139e-06
 Reference value :  8.25189e-06
 Reference value :  8.25250e-06
 Reference value :  8.25330e-06
 Reference value :  8.25418e-06
 Reference value :  8.25526e-06
 Reference value :  8.25645e-06
 Reference value :  8.25784e-06
 Reference value :  8.25942e-06
 Reference value :  8.26126e-06
 Reference value :  8.26401e-06
 Reference value :  8.26675e-06
 Reference value :  8.27191e-06
 Reference value :  8.28224e-06
 Reference value :  8.29902e-06
 Reference value :  8.33246e-06
 Reference value :  8.39196e-06
 Reference value :  8.50000e-06
 Reference value :  8.50001e-06
 Reference value :  8.50003e-06
 Reference value :  8.50007e-06
 Reference value :  8.50010e-06
 Reference value :  8.50010e-06
 Reference value :  8.50011e-06
 Reference value :  8.50013e-06
 Reference value :  8.50016e-06
 Reference value :  8.50023e-06
 Reference value :  8.50036e-06
 Reference value :  8.50063e-06
 Reference value :  8.50109e-06
 Reference value :  8.50179e-06
 Reference value :  8.50270e-06
 Reference value :  8.50336e-06
 Reference value :  8.50415e-06
 Reference value :  8.50499e-06
 Reference value :  8.50589e-06
 Reference value :  8.50698e-06
 Reference value :  8.50836e-06
 Reference value :  8.51007e-06
 Reference value :  8.51231e-06
 Reference value :  8.51410e-06
 Reference value :  8.51597e-06
 Reference value :  8.51836e-06
 Reference value :  8.52086e-06
 Reference value :  8.52366e-06
 Reference value :  8.52797e-06
 Reference value :  8.53317e-06
 Reference value :  8.53692e-06
 Reference value :  8.54026e-06
 Reference value :  8.54310e-06
 Reference value :  8.54559e-06
 Reference value :  8.54761e-06
 Reference value :  8.54945e-06
 Reference value :  8.55115e-06
 Reference value :  8.55291e-06
 Reference value :  8.55555e-06
 Reference value :  8.55817e-06
 Reference value :  8.56089e-06
 Reference value :  8.56574e-06
 Reference value :  8.57044e-06
 Reference value :  8.57895e-06
 Reference value :  8.58701e-06
 Reference value :  8.60292e-06
 Reference value :  8.61800e-06
 Reference value :  8.63511e-06
 Reference value :  8.65313e-06
 Reference value :  8.68086e-06
 Reference value :  8.71841e-06
 Reference value :  8.75010e-06
 Reference value :  8.75011e-06
 Reference value :  8.75013e-06
 Reference value :  8.75017e-06
 Reference value :  8.75020e-06
 Reference value :  8.75020e-06
 Reference value :  8.75020e-06
 Reference value :  8.75021e-06
 Reference value :  8.75021e-06
 Reference value :  8.75022e-06
 Reference value :  8.75025e-06
 Reference value :  8.75030e-06
 Reference value :  8.75039e-06
 Reference value :  8.75059e-06
 Reference value :  8.75098e-06
 Reference value :  8.75139e-06
 Reference value :  8.75191e-06
 Reference value :  8.75252e-06
 Reference value :  8.75332e-06
 Reference value :  8.75421e-06
 Reference value :  8.75542e-06
 Reference value :  8.75639e-06
 Reference value :  8.75740e-06
 Reference value :  8.75850e-06
 Reference value :  8.76007e-06
 Reference value :  8.76171e-06
 Reference value :  8.76408e-06
 Reference value :  8.76754e-06
 Reference value :  8.77387e-06
 Reference value :  8.78608e-06
 Reference value :  8.80654e-06
 Reference value :  8.84664e-06
 Reference value :  8.91800e-06
No. of Data Rows : 1399
ngspice-44 done
