
Note: Compatibility modes selected: hs a


Circuit: ** sch_path: /home/samantha/cace/sar-adc-using-sky130-pdk/runs/run_2025-09-01_15-13-24/parameters/sampling_rate/run_00/sampling_rate.sch

option SCALE: Scale is set to 1e-06 for instance and model parameters
option SCALE: Scale is set to 1e-06 for instance and model parameters
option SCALE: Scale is set to 1e-06 for instance and model parameters
option SCALE: Scale is set to 1e-06 for instance and model parameters
Doing analysis at TEMP = 27.000000 and TNOM = 27.000000

Using KLU as Direct Linear Solver
Operating point simulation skipped by 'uic',
  now using transient initial conditions.
 Reference value :  1.00000e-12
 Reference value :  1.02800e-12
 Reference value :  1.08400e-12
 Reference value :  1.42000e-12
 Reference value :  2.36130e-12
 Reference value :  3.23433e-12
 Reference value :  6.36211e-12
 Reference value :  1.36076e-11
 Reference value :  3.30511e-11
 Reference value :  1.00000e-10
 Reference value :  1.05185e-10
 Reference value :  1.15555e-10
 Reference value :  1.77774e-10
 Reference value :  2.60733e-10
 Reference value :  4.26651e-10
 Reference value :  6.90019e-10
 Reference value :  9.87105e-10
 Reference value :  1.42210e-09
 Reference value :  1.93886e-09
 Reference value :  2.53044e-09
 Reference value :  3.28576e-09
 Reference value :  4.19888e-09
 Reference value :  5.24420e-09
 Reference value :  6.35345e-09
 Reference value :  7.11366e-09
 Reference value :  7.83905e-09
 Reference value :  8.54534e-09
 Reference value :  1.02401e-08
 Reference value :  1.14923e-08
 Reference value :  1.33932e-08
 Reference value :  1.85753e-08
 Reference value :  2.31262e-08
 Reference value :  2.92084e-08
 Reference value :  3.41653e-08
 Reference value :  3.98256e-08
 Reference value :  6.78467e-08
 Reference value :  1.63650e-07
 Reference value :  2.50110e-07
 Reference value :  2.50170e-07
 Reference value :  2.50200e-07
 Reference value :  2.50207e-07
 Reference value :  2.50222e-07
 Reference value :  2.50252e-07
 Reference value :  2.50312e-07
 Reference value :  2.50562e-07
 Reference value :  2.50726e-07
 Reference value :  2.51384e-07
 Reference value :  2.51830e-07
 Reference value :  2.52291e-07
 Reference value :  2.52916e-07
 Reference value :  2.53629e-07
 Reference value :  2.54215e-07
 Reference value :  2.54827e-07
 Reference value :  2.55470e-07
 Reference value :  2.56202e-07
 Reference value :  2.58655e-07
 Reference value :  2.60099e-07
 Reference value :  2.66529e-07
 Reference value :  2.73612e-07
 Reference value :  3.05382e-07
 Reference value :  4.24404e-07
 Reference value :  5.00000e-07
 Reference value :  5.00010e-07
 Reference value :  5.00030e-07
 Reference value :  5.00070e-07
 Reference value :  5.00108e-07
 Reference value :  5.00124e-07
 Reference value :  5.00220e-07
 Reference value :  5.00345e-07
 Reference value :  5.00518e-07
 Reference value :  5.00863e-07
 Reference value :  5.01309e-07
 Reference value :  5.01746e-07
 Reference value :  5.02221e-07
 Reference value :  5.02670e-07
 Reference value :  5.03217e-07
 Reference value :  5.04431e-07
 Reference value :  5.05317e-07
 Reference value :  5.06132e-07
 Reference value :  5.07326e-07
 Reference value :  5.08536e-07
 Reference value :  5.09742e-07
 Reference value :  5.10968e-07
 Reference value :  5.12697e-07
 Reference value :  5.14172e-07
 Reference value :  5.17762e-07
 Reference value :  5.19860e-07
 Reference value :  5.23484e-07
 Reference value :  5.38330e-07
 Reference value :  5.91122e-07
 Reference value :  7.50100e-07
 Reference value :  7.50110e-07
 Reference value :  7.50170e-07
 Reference value :  7.50200e-07
 Reference value :  7.50208e-07
 Reference value :  7.50224e-07
 Reference value :  7.50320e-07
 Reference value :  7.50448e-07
 Reference value :  7.50838e-07
 Reference value :  7.51269e-07
 Reference value :  7.51714e-07
 Reference value :  7.52153e-07
 Reference value :  7.52727e-07
 Reference value :  7.53504e-07
 Reference value :  7.54016e-07
 Reference value :  7.54602e-07
 Reference value :  7.55259e-07
 Reference value :  7.55920e-07
 Reference value :  7.56704e-07
 Reference value :  7.57567e-07
 Reference value :  7.58672e-07
 Reference value :  7.61405e-07
 Reference value :  7.66282e-07
 Reference value :  7.71795e-07
 Reference value :  7.94908e-07
 Reference value :  8.18631e-07
 Reference value :  9.27811e-07
 Reference value :  1.00000e-06
 Reference value :  1.00001e-06
 Reference value :  1.00003e-06
 Reference value :  1.00007e-06
 Reference value :  1.00010e-06
 Reference value :  1.00011e-06
 Reference value :  1.00012e-06
 Reference value :  1.00016e-06
 Reference value :  1.00034e-06
 Reference value :  1.00086e-06
 Reference value :  1.00182e-06
 Reference value :  1.00231e-06
 Reference value :  1.00278e-06
 Reference value :  1.00334e-06
 Reference value :  1.00393e-06
 Reference value :  1.00519e-06
 Reference value :  1.00582e-06
 Reference value :  1.00734e-06
 Reference value :  1.00944e-06
 Reference value :  1.01047e-06
 Reference value :  1.01152e-06
 Reference value :  1.01264e-06
 Reference value :  1.01349e-06
 Reference value :  1.01432e-06
 Reference value :  1.01527e-06
 Reference value :  1.01626e-06
 Reference value :  1.01723e-06
 Reference value :  1.01833e-06
 Reference value :  1.02135e-06
 Reference value :  1.02710e-06
 Reference value :  1.04481e-06
 Reference value :  1.10923e-06
 Reference value :  1.24262e-06
 Reference value :  1.25011e-06
 Reference value :  1.25013e-06
 Reference value :  1.25020e-06
 Reference value :  1.25022e-06
 Reference value :  1.25026e-06
 Reference value :  1.25045e-06
 Reference value :  1.25084e-06
 Reference value :  1.25127e-06
 Reference value :  1.25171e-06
 Reference value :  1.25216e-06
 Reference value :  1.25351e-06
 Reference value :  1.25403e-06
 Reference value :  1.25524e-06
 Reference value :  1.25597e-06
 Reference value :  1.25829e-06
 Reference value :  1.26308e-06
 Reference value :  1.27619e-06
 Reference value :  1.32650e-06
 Reference value :  1.50000e-06
 Reference value :  1.50003e-06
 Reference value :  1.50010e-06
 Reference value :  1.50012e-06
 Reference value :  1.50022e-06
 Reference value :  1.50052e-06
 Reference value :  1.50086e-06
 Reference value :  1.50175e-06
 Reference value :  1.50268e-06
 Reference value :  1.50322e-06
 Reference value :  1.50379e-06
 Reference value :  1.50442e-06
 Reference value :  1.50522e-06
 Reference value :  1.50671e-06
 Reference value :  1.50832e-06
 Reference value :  1.51031e-06
 Reference value :  1.51387e-06
 Reference value :  1.52603e-06
 Reference value :  1.63949e-06
 Reference value :  1.75011e-06
 Reference value :  1.75017e-06
 Reference value :  1.75021e-06
 Reference value :  1.75026e-06
 Reference value :  1.75044e-06
 Reference value :  1.75083e-06
 Reference value :  1.75170e-06
 Reference value :  1.75214e-06
 Reference value :  1.75350e-06
 Reference value :  1.75401e-06
 Reference value :  1.75527e-06
 Reference value :  1.75598e-06
 Reference value :  1.75679e-06
 Reference value :  1.75870e-06
 Reference value :  1.76165e-06
 Reference value :  1.76675e-06
 Reference value :  1.78015e-06
 Reference value :  1.81651e-06
 Reference value :  1.91421e-06
 Reference value :  2.00001e-06
 Reference value :  2.00007e-06
 Reference value :  2.00011e-06
 Reference value :  2.00016e-06
 Reference value :  2.00034e-06
 Reference value :  2.00086e-06
 Reference value :  2.00182e-06
 Reference value :  2.00278e-06
 Reference value :  2.00334e-06
 Reference value :  2.00457e-06
 Reference value :  2.00582e-06
 Reference value :  2.00733e-06
 Reference value :  2.00943e-06
 Reference value :  2.01047e-06
 Reference value :  2.01154e-06
 Reference value :  2.01351e-06
 Reference value :  2.01529e-06
 Reference value :  2.01725e-06
 Reference value :  2.01839e-06
 Reference value :  2.02141e-06
 Reference value :  2.02744e-06
 Reference value :  2.04695e-06
 Reference value :  2.10189e-06
 Reference value :  2.25010e-06
 Reference value :  2.25013e-06
 Reference value :  2.25017e-06
 Reference value :  2.25020e-06
 Reference value :  2.25022e-06
 Reference value :  2.25026e-06
 Reference value :  2.25044e-06
 Reference value :  2.25060e-06
 Reference value :  2.25126e-06
 Reference value :  2.25170e-06
 Reference value :  2.25214e-06
 Reference value :  2.25271e-06
 Reference value :  2.25350e-06
 Reference value :  2.25401e-06
 Reference value :  2.25523e-06
 Reference value :  2.25596e-06
 Reference value :  2.25828e-06
 Reference value :  2.26009e-06
 Reference value :  2.26738e-06
 Reference value :  2.29339e-06
 Reference value :  2.39377e-06
 Reference value :  2.49272e-06
 Reference value :  2.50000e-06
 Reference value :  2.50001e-06
 Reference value :  2.50003e-06
 Reference value :  2.50010e-06
 Reference value :  2.50012e-06
 Reference value :  2.50016e-06
 Reference value :  2.50022e-06
 Reference value :  2.50052e-06
 Reference value :  2.50086e-06
 Reference value :  2.50131e-06
 Reference value :  2.50175e-06
 Reference value :  2.50223e-06
 Reference value :  2.50268e-06
 Reference value :  2.50322e-06
 Reference value :  2.50379e-06
 Reference value :  2.50442e-06
 Reference value :  2.50522e-06
 Reference value :  2.50605e-06
 Reference value :  2.50671e-06
 Reference value :  2.50748e-06
 Reference value :  2.50832e-06
 Reference value :  2.50925e-06
 Reference value :  2.51030e-06
 Reference value :  2.51385e-06
 Reference value :  2.52596e-06
 Reference value :  2.57440e-06
 Reference value :  2.63898e-06
 Reference value :  2.75010e-06
 Reference value :  2.75011e-06
 Reference value :  2.75017e-06
 Reference value :  2.75020e-06
 Reference value :  2.75021e-06
 Reference value :  2.75026e-06
 Reference value :  2.75032e-06
 Reference value :  2.75060e-06
 Reference value :  2.75126e-06
 Reference value :  2.75170e-06
 Reference value :  2.75214e-06
 Reference value :  2.75270e-06
 Reference value :  2.75350e-06
 Reference value :  2.75401e-06
 Reference value :  2.75527e-06
 Reference value :  2.75598e-06
 Reference value :  2.75679e-06
 Reference value :  2.75764e-06
 Reference value :  2.75977e-06
 Reference value :  2.76165e-06
 Reference value :  2.76676e-06
 Reference value :  2.78016e-06
 Reference value :  2.81651e-06
 Reference value :  2.91415e-06
 Reference value :  3.00001e-06
 Reference value :  3.00007e-06
 Reference value :  3.00011e-06
 Reference value :  3.00016e-06
 Reference value :  3.00022e-06
 Reference value :  3.00052e-06
 Reference value :  3.00086e-06
 Reference value :  3.00131e-06
 Reference value :  3.00182e-06
 Reference value :  3.00278e-06
 Reference value :  3.00334e-06
 Reference value :  3.00393e-06
 Reference value :  3.00457e-06
 Reference value :  3.00582e-06
 Reference value :  3.00733e-06
 Reference value :  3.00834e-06
 Reference value :  3.01047e-06
 Reference value :  3.01155e-06
 Reference value :  3.01351e-06
 Reference value :  3.01529e-06
 Reference value :  3.01628e-06
 Reference value :  3.01839e-06
 Reference value :  3.02141e-06
 Reference value :  3.02742e-06
 Reference value :  3.03492e-06
 Reference value :  3.07047e-06
 Reference value :  3.16350e-06
 Reference value :  3.19440e-06
 Reference value :  3.22013e-06
 Reference value :  3.25011e-06
 Reference value :  3.25013e-06
 Reference value :  3.25017e-06
 Reference value :  3.25020e-06
 Reference value :  3.25021e-06
 Reference value :  3.25026e-06
 Reference value :  3.25044e-06
 Reference value :  3.25060e-06
 Reference value :  3.25083e-06
 Reference value :  3.25126e-06
 Reference value :  3.25170e-06
 Reference value :  3.25214e-06
 Reference value :  3.25271e-06
 Reference value :  3.25350e-06
 Reference value :  3.25401e-06
 Reference value :  3.25523e-06
 Reference value :  3.25596e-06
 Reference value :  3.25828e-06
 Reference value :  3.26304e-06
 Reference value :  3.27605e-06
 Reference value :  3.32653e-06
 Reference value :  3.39282e-06
 Reference value :  3.50001e-06
 Reference value :  3.50007e-06
 Reference value :  3.50010e-06
 Reference value :  3.50011e-06
 Reference value :  3.50012e-06
 Reference value :  3.50022e-06
 Reference value :  3.50034e-06
 Reference value :  3.50086e-06
 Reference value :  3.50131e-06
 Reference value :  3.50175e-06
 Reference value :  3.50268e-06
 Reference value :  3.50322e-06
 Reference value :  3.50379e-06
 Reference value :  3.50442e-06
 Reference value :  3.50522e-06
 Reference value :  3.50605e-06
 Reference value :  3.50671e-06
 Reference value :  3.50748e-06
 Reference value :  3.50832e-06
 Reference value :  3.50925e-06
 Reference value :  3.51150e-06
 Reference value :  3.51786e-06
 Reference value :  3.54197e-06
 Reference value :  3.63844e-06
 Reference value :  3.75011e-06
 Reference value :  3.75013e-06
 Reference value :  3.75020e-06
 Reference value :  3.75021e-06
 Reference value :  3.75026e-06
 Reference value :  3.75044e-06
 Reference value :  3.75083e-06
 Reference value :  3.75126e-06
 Reference value :  3.75170e-06
 Reference value :  3.75270e-06
 Reference value :  3.75350e-06
 Reference value :  3.75401e-06
 Reference value :  3.75527e-06
 Reference value :  3.75598e-06
 Reference value :  3.75679e-06
 Reference value :  3.75764e-06
 Reference value :  3.75977e-06
 Reference value :  3.76342e-06
 Reference value :  3.76676e-06
 Reference value :  3.78016e-06
 Reference value :  3.79458e-06
 Reference value :  3.85352e-06
 Reference value :  4.00000e-06
 Reference value :  4.00001e-06
 Reference value :  4.00007e-06
 Reference value :  4.00011e-06
 Reference value :  4.00016e-06
 Reference value :  4.00022e-06
 Reference value :  4.00052e-06
 Reference value :  4.00131e-06
 Reference value :  4.00182e-06
 Reference value :  4.00231e-06
 Reference value :  4.00278e-06
 Reference value :  4.00334e-06
 Reference value :  4.00393e-06
 Reference value :  4.00457e-06
 Reference value :  4.00582e-06
 Reference value :  4.00733e-06
 Reference value :  4.00943e-06
 Reference value :  4.01047e-06
 Reference value :  4.01155e-06
 Reference value :  4.01267e-06
 Reference value :  4.01353e-06
 Reference value :  4.01533e-06
 Reference value :  4.01633e-06
 Reference value :  4.01847e-06
 Reference value :  4.02152e-06
 Reference value :  4.02765e-06
 Reference value :  4.04770e-06
 Reference value :  4.09439e-06
 Reference value :  4.10506e-06
 Reference value :  4.11914e-06
 Reference value :  4.16863e-06
 Reference value :  4.25010e-06
 Reference value :  4.25013e-06
 Reference value :  4.25020e-06
 Reference value :  4.25022e-06
 Reference value :  4.25025e-06
 Reference value :  4.25039e-06
 Reference value :  4.25054e-06
 Reference value :  4.25073e-06
 Reference value :  4.25098e-06
 Reference value :  4.25146e-06
 Reference value :  4.25194e-06
 Reference value :  4.25244e-06
 Reference value :  4.25312e-06
 Reference value :  4.25382e-06
 Reference value :  4.25439e-06
 Reference value :  4.25562e-06
 Reference value :  4.25646e-06
 Reference value :  4.25909e-06
 Reference value :  4.26135e-06
 Reference value :  4.27161e-06
 Reference value :  4.31173e-06
 Reference value :  4.47222e-06
 Reference value :  4.50001e-06
 Reference value :  4.50003e-06
 Reference value :  4.50010e-06
 Reference value :  4.50012e-06
 Reference value :  4.50022e-06
 Reference value :  4.50059e-06
 Reference value :  4.50093e-06
 Reference value :  4.50145e-06
 Reference value :  4.50196e-06
 Reference value :  4.50243e-06
 Reference value :  4.50347e-06
 Reference value :  4.50405e-06
 Reference value :  4.50471e-06
 Reference value :  4.50560e-06
 Reference value :  4.50648e-06
 Reference value :  4.50743e-06
 Reference value :  4.50836e-06
 Reference value :  4.50928e-06
 Reference value :  4.51025e-06
 Reference value :  4.51137e-06
 Reference value :  4.51508e-06
 Reference value :  4.52558e-06
 Reference value :  4.55960e-06
 Reference value :  4.68939e-06
 Reference value :  4.75011e-06
 Reference value :  4.75017e-06
 Reference value :  4.75021e-06
 Reference value :  4.75026e-06
 Reference value :  4.75039e-06
 Reference value :  4.75074e-06
 Reference value :  4.75147e-06
 Reference value :  4.75194e-06
 Reference value :  4.75311e-06
 Reference value :  4.75382e-06
 Reference value :  4.75440e-06
 Reference value :  4.75503e-06
 Reference value :  4.75566e-06
 Reference value :  4.75643e-06
 Reference value :  4.75808e-06
 Reference value :  4.75904e-06
 Reference value :  4.76191e-06
 Reference value :  4.76720e-06
 Reference value :  4.78088e-06
 Reference value :  4.81632e-06
 Reference value :  5.00000e-06
 Reference value :  5.00003e-06
 Reference value :  5.00010e-06
 Reference value :  5.00012e-06
 Reference value :  5.00022e-06
 Reference value :  5.00035e-06
 Reference value :  5.00093e-06
 Reference value :  5.00145e-06
 Reference value :  5.00245e-06
 Reference value :  5.00297e-06
 Reference value :  5.00350e-06
 Reference value :  5.00410e-06
 Reference value :  5.00459e-06
 Reference value :  5.00515e-06
 Reference value :  5.00583e-06
 Reference value :  5.00731e-06
 Reference value :  5.00816e-06
 Reference value :  5.01065e-06
 Reference value :  5.01174e-06
 Reference value :  5.01293e-06
 Reference value :  5.01377e-06
 Reference value :  5.01455e-06
 Reference value :  5.01552e-06
 Reference value :  5.01745e-06
 Reference value :  5.01871e-06
 Reference value :  5.02185e-06
 Reference value :  5.02934e-06
 Reference value :  5.05050e-06
 Reference value :  5.05706e-06
 Reference value :  5.06418e-06
 Reference value :  5.08724e-06
 Reference value :  5.10255e-06
 Reference value :  5.14205e-06
 Reference value :  5.21070e-06
 Reference value :  5.25011e-06
 Reference value :  5.25017e-06
 Reference value :  5.25020e-06
 Reference value :  5.25022e-06
 Reference value :  5.25025e-06
 Reference value :  5.25032e-06
 Reference value :  5.25054e-06
 Reference value :  5.25097e-06
 Reference value :  5.25192e-06
 Reference value :  5.25239e-06
 Reference value :  5.25308e-06
 Reference value :  5.25378e-06
 Reference value :  5.25432e-06
 Reference value :  5.25552e-06
 Reference value :  5.25630e-06
 Reference value :  5.25713e-06
 Reference value :  5.25876e-06
 Reference value :  5.26412e-06
 Reference value :  5.28086e-06
 Reference value :  5.33986e-06
 Reference value :  5.50000e-06
 Reference value :  5.50003e-06
 Reference value :  5.50010e-06
 Reference value :  5.50011e-06
 Reference value :  5.50016e-06
 Reference value :  5.50035e-06
 Reference value :  5.50093e-06
 Reference value :  5.50145e-06
 Reference value :  5.50243e-06
 Reference value :  5.50347e-06
 Reference value :  5.50405e-06
 Reference value :  5.50471e-06
 Reference value :  5.50560e-06
 Reference value :  5.50648e-06
 Reference value :  5.50743e-06
 Reference value :  5.50928e-06
 Reference value :  5.51137e-06
 Reference value :  5.51508e-06
 Reference value :  5.52553e-06
 Reference value :  5.55925e-06
 Reference value :  5.68779e-06
 Reference value :  5.75011e-06
 Reference value :  5.75013e-06
 Reference value :  5.75020e-06
 Reference value :  5.75021e-06
 Reference value :  5.75022e-06
 Reference value :  5.75026e-06
 Reference value :  5.75039e-06
 Reference value :  5.75074e-06
 Reference value :  5.75147e-06
 Reference value :  5.75194e-06
 Reference value :  5.75245e-06
 Reference value :  5.75311e-06
 Reference value :  5.75382e-06
 Reference value :  5.75440e-06
 Reference value :  5.75503e-06
 Reference value :  5.75643e-06
 Reference value :  5.75726e-06
 Reference value :  5.75808e-06
 Reference value :  5.75904e-06
 Reference value :  5.76191e-06
 Reference value :  5.76721e-06
 Reference value :  5.78091e-06
 Reference value :  5.81648e-06
 Reference value :  6.00000e-06
 Reference value :  6.00003e-06
 Reference value :  6.00010e-06
 Reference value :  6.00012e-06
 Reference value :  6.00022e-06
 Reference value :  6.00059e-06
 Reference value :  6.00093e-06
 Reference value :  6.00196e-06
 Reference value :  6.00245e-06
 Reference value :  6.00350e-06
 Reference value :  6.00410e-06
 Reference value :  6.00459e-06
 Reference value :  6.00515e-06
 Reference value :  6.00583e-06
 Reference value :  6.00731e-06
 Reference value :  6.00970e-06
 Reference value :  6.01066e-06
 Reference value :  6.01175e-06
 Reference value :  6.01293e-06
 Reference value :  6.01377e-06
 Reference value :  6.01552e-06
 Reference value :  6.01745e-06
 Reference value :  6.01994e-06
 Reference value :  6.02435e-06
 Reference value :  6.03267e-06
 Reference value :  6.03634e-06
 Reference value :  6.04038e-06
 Reference value :  6.04695e-06
 Reference value :  6.07076e-06
 Reference value :  6.14590e-06
 Reference value :  6.25010e-06
 Reference value :  6.25011e-06
 Reference value :  6.25013e-06
 Reference value :  6.25017e-06
 Reference value :  6.25021e-06
 Reference value :  6.25025e-06
 Reference value :  6.25032e-06
 Reference value :  6.25039e-06
 Reference value :  6.25071e-06
 Reference value :  6.25097e-06
 Reference value :  6.25193e-06
 Reference value :  6.25239e-06
 Reference value :  6.25308e-06
 Reference value :  6.25378e-06
 Reference value :  6.25432e-06
 Reference value :  6.25494e-06
 Reference value :  6.25552e-06
 Reference value :  6.25630e-06
 Reference value :  6.25877e-06
 Reference value :  6.26413e-06
 Reference value :  6.28093e-06
 Reference value :  6.33998e-06
 Reference value :  6.50000e-06
 Reference value :  6.50001e-06
 Reference value :  6.50007e-06
 Reference value :  6.50010e-06
 Reference value :  6.50012e-06
 Reference value :  6.50022e-06
 Reference value :  6.50059e-06
 Reference value :  6.50093e-06
 Reference value :  6.50145e-06
 Reference value :  6.50243e-06
 Reference value :  6.50347e-06
 Reference value :  6.50471e-06
 Reference value :  6.50560e-06
 Reference value :  6.50648e-06
 Reference value :  6.50743e-06
 Reference value :  6.50836e-06
 Reference value :  6.51026e-06
 Reference value :  6.51261e-06
 Reference value :  6.52549e-06
 Reference value :  6.55900e-06
 Reference value :  6.60155e-06
 Reference value :  6.75010e-06
 Reference value :  6.75013e-06
 Reference value :  6.75020e-06
 Reference value :  6.75022e-06
 Reference value :  6.75026e-06
 Reference value :  6.75032e-06
 Reference value :  6.75039e-06
 Reference value :  6.75074e-06
 Reference value :  6.75099e-06
 Reference value :  6.75194e-06
 Reference value :  6.75311e-06
 Reference value :  6.75382e-06
 Reference value :  6.75440e-06
 Reference value :  6.75567e-06
 Reference value :  6.75643e-06
 Reference value :  6.75808e-06
 Reference value :  6.75904e-06
 Reference value :  6.76025e-06
 Reference value :  6.76191e-06
 Reference value :  6.76721e-06
 Reference value :  6.78091e-06
 Reference value :  6.81647e-06
 Reference value :  7.00000e-06
 Reference value :  7.00003e-06
 Reference value :  7.00010e-06
 Reference value :  7.00012e-06
 Reference value :  7.00022e-06
 Reference value :  7.00059e-06
 Reference value :  7.00093e-06
 Reference value :  7.00196e-06
 Reference value :  7.00245e-06
 Reference value :  7.00297e-06
 Reference value :  7.00350e-06
 Reference value :  7.00409e-06
 Reference value :  7.00459e-06
 Reference value :  7.00515e-06
 Reference value :  7.00646e-06
 Reference value :  7.00816e-06
 Reference value :  7.01066e-06
 Reference value :  7.01294e-06
 Reference value :  7.01378e-06
 Reference value :  7.01456e-06
 Reference value :  7.01553e-06
 Reference value :  7.01746e-06
 Reference value :  7.01995e-06
 Reference value :  7.02379e-06
 Reference value :  7.02957e-06
 Reference value :  7.03521e-06
 Reference value :  7.06439e-06
 Reference value :  7.16133e-06
 Reference value :  7.25010e-06
 Reference value :  7.25011e-06
 Reference value :  7.25017e-06
 Reference value :  7.25021e-06
 Reference value :  7.25025e-06
 Reference value :  7.25039e-06
 Reference value :  7.25071e-06
 Reference value :  7.25142e-06
 Reference value :  7.25193e-06
 Reference value :  7.25240e-06
 Reference value :  7.25308e-06
 Reference value :  7.25378e-06
 Reference value :  7.25432e-06
 Reference value :  7.25552e-06
 Reference value :  7.25630e-06
 Reference value :  7.25877e-06
 Reference value :  7.26413e-06
 Reference value :  7.26973e-06
 Reference value :  7.30055e-06
 Reference value :  7.41823e-06
 Reference value :  7.50001e-06
 Reference value :  7.50007e-06
 Reference value :  7.50011e-06
 Reference value :  7.50016e-06
 Reference value :  7.50035e-06
 Reference value :  7.50059e-06
 Reference value :  7.50093e-06
 Reference value :  7.50196e-06
 Reference value :  7.50243e-06
 Reference value :  7.50347e-06
 Reference value :  7.50405e-06
 Reference value :  7.50560e-06
 Reference value :  7.50648e-06
 Reference value :  7.50743e-06
 Reference value :  7.50836e-06
 Reference value :  7.50928e-06
 Reference value :  7.51137e-06
 Reference value :  7.51508e-06
 Reference value :  7.52546e-06
 Reference value :  7.55878e-06
 Reference value :  7.68571e-06
 Reference value :  7.75011e-06
 Reference value :  7.75017e-06
 Reference value :  7.75021e-06
 Reference value :  7.75026e-06
 Reference value :  7.75039e-06
 Reference value :  7.75074e-06
 Reference value :  7.75147e-06
 Reference value :  7.75245e-06
 Reference value :  7.75311e-06
 Reference value :  7.75382e-06
 Reference value :  7.75440e-06
 Reference value :  7.75503e-06
 Reference value :  7.75567e-06
 Reference value :  7.75643e-06
 Reference value :  7.75726e-06
 Reference value :  7.75808e-06
 Reference value :  7.75904e-06
 Reference value :  7.76025e-06
 Reference value :  7.76405e-06
 Reference value :  7.77287e-06
 Reference value :  7.79475e-06
 Reference value :  7.85131e-06
 Reference value :  8.00000e-06
 Reference value :  8.00003e-06
 Reference value :  8.00010e-06
 Reference value :  8.00012e-06
 Reference value :  8.00022e-06
 Reference value :  8.00059e-06
 Reference value :  8.00093e-06
 Reference value :  8.00196e-06
 Reference value :  8.00245e-06
 Reference value :  8.00350e-06
 Reference value :  8.00410e-06
 Reference value :  8.00459e-06
 Reference value :  8.00583e-06
 Reference value :  8.00731e-06
 Reference value :  8.00816e-06
 Reference value :  8.00967e-06
 Reference value :  8.01132e-06
 Reference value :  8.01426e-06
 Reference value :  8.01547e-06
 Reference value :  8.01754e-06
 Reference value :  8.02203e-06
 Reference value :  8.03446e-06
 Reference value :  8.06879e-06
 Reference value :  8.25010e-06
 Reference value :  8.25013e-06
 Reference value :  8.25020e-06
 Reference value :  8.25022e-06
 Reference value :  8.25032e-06
 Reference value :  8.25044e-06
 Reference value :  8.25079e-06
 Reference value :  8.25160e-06
 Reference value :  8.25256e-06
 Reference value :  8.25328e-06
 Reference value :  8.25404e-06
 Reference value :  8.25596e-06
 Reference value :  8.25853e-06
 Reference value :  8.26316e-06
 Reference value :  8.27751e-06
 Reference value :  8.33494e-06
 Reference value :  8.50000e-06
 Reference value :  8.50003e-06
 Reference value :  8.50010e-06
 Reference value :  8.50012e-06
 Reference value :  8.50022e-06
 Reference value :  8.50060e-06
 Reference value :  8.50143e-06
 Reference value :  8.50244e-06
 Reference value :  8.50357e-06
 Reference value :  8.50489e-06
 Reference value :  8.50631e-06
 Reference value :  8.50849e-06
 Reference value :  8.51378e-06
 Reference value :  8.52622e-06
 Reference value :  8.53061e-06
 Reference value :  8.53428e-06
 Reference value :  8.53748e-06
 Reference value :  8.54075e-06
 Reference value :  8.54553e-06
 Reference value :  8.55358e-06
 Reference value :  8.58329e-06
 Reference value :  8.63509e-06
 Reference value :  8.75010e-06
 Reference value :  8.75013e-06
 Reference value :  8.75020e-06
 Reference value :  8.75022e-06
 Reference value :  8.75032e-06
 Reference value :  8.75060e-06
 Reference value :  8.75126e-06
 Reference value :  8.75170e-06
 Reference value :  8.75271e-06
 Reference value :  8.75347e-06
 Reference value :  8.75398e-06
 Reference value :  8.75516e-06
 Reference value :  8.75588e-06
 Reference value :  8.75663e-06
 Reference value :  8.75988e-06
 Reference value :  8.76679e-06
 Reference value :  8.79090e-06
 Reference value :  9.00000e-06
No. of Data Rows : 1306
ngspice-44 done
